@<TRIPOS>MOLECULE
*****
 32 35 0 0 0
SMALL
GASTEIGER

@<TRIPOS>ATOM
      1 C          63.7665   90.6855   11.8144 C.ar    1  UNL1        0.1050
      2 N          64.7798   91.5920   11.1808 N.ar    1  UNL1       -0.1624
      3 N          65.5011   92.3187   12.2770 N.ar    1  UNL1       -0.1929
      4 C          66.5975   93.3260   12.0943 C.2     1  UNL1        0.2811
      5 O          67.2280   93.9738   13.2912 O.2     1  UNL1       -0.2651
      6 C          64.9337   91.8613   13.5880 C.ar    1  UNL1        0.1066
      7 C          65.2547   92.2335   15.0052 C.ar    1  UNL1        0.1181
      8 N          64.5036   91.5963   16.1364 N.ar    1  UNL1       -0.2407
      9 C          63.4315   90.5868   15.8505 C.ar    1  UNL1        0.0990
     10 C          63.1105   90.2146   14.4334 C.ar    1  UNL1        0.0237
     11 C          63.8616   90.8519   13.3021 C.ar    1  UNL1        0.0403
     12 C          60.9379   87.9472    9.6347 C.ar    1  UNL1        0.0162
     13 C          61.0065   89.4002    9.2687 C.ar    1  UNL1        0.0013
     14 C          61.9494   90.3129    9.9953 C.ar    1  UNL1        0.0038
     15 C          62.8236   89.7727   11.0878 C.ar    1  UNL1        0.0469
     16 C          62.7550   88.3196   11.4539 C.ar    1  UNL1        0.1416
     17 F          63.6293   87.7793   12.5464 F       1  UNL1       -0.2041
     18 C          61.8121   87.4069   10.7273 C.ar    1  UNL1        0.0308
     19 O          58.5925   87.4809    8.6191 O.co2   1  UNL1       -0.5446
     20 C          59.9950   87.0344    8.9082 C.2     1  UNL1        0.0729
     21 O          60.4546   85.6752    8.4707 O.co2   1  UNL1       -0.5446
     22 C          67.0633   93.6856   10.7144 C.ar    1  UNL1        0.0723
     23 C          67.9567   92.7488    9.9566 C.ar    1  UNL1        0.0622
     24 CL         68.3843   91.4525   10.5786 Cl      1  UNL1       -0.0821
     25 C          68.4225   93.1083    8.5768 C.ar    1  UNL1        0.0115
     26 C          67.9949   94.4046    7.9549 C.ar    1  UNL1        0.0008
     27 C          67.1015   95.3413    8.7128 C.ar    1  UNL1        0.0041
     28 C          66.6357   94.9819   10.0925 C.ar    1  UNL1        0.0769
     29 C          65.7422   95.9186   10.8503 C.3     1  UNL1        0.4188
     30 F          64.8488   96.8553   11.6082 F       1  UNL1       -0.1659
     31 F          66.9451   96.5577   11.4784 F       1  UNL1       -0.1659
     32 F          64.5393   95.2794   10.2222 F       1  UNL1       -0.1659
@<TRIPOS>UNITY_ATOM_ATTR
19 1
charge -1
@<TRIPOS>BOND
     1    19    20   ar
     2    20    21   ar
     3    20    12    1
     4    12    13   ar
     5    13    14   ar
     6    14    15   ar
     7    15     1    1
     8     1     2   ar
     9     2     3   ar
    10     3     4   am
    11     4     5    2
    12     4    22    1
    13    22    23   ar
    14    23    24    1
    15    23    25   ar
    16    25    26   ar
    17    26    27   ar
    18    27    28   ar
    19    28    29    1
    20    29    30    1
    21    29    31    1
    22    29    32    1
    23     3     6   ar
    24     6     7   ar
    25     7     8   ar
    26     8     9   ar
    27     9    10   ar
    28    10    11   ar
    29    15    16   ar
    30    16    17    1
    31    16    18   ar
    32    18    12   ar
    33    11     1   ar
    34    28    22   ar
    35    11     6   ar
@<TRIPOS>MOLECULE
*****
 32 35 0 0 0
SMALL
GASTEIGER

@<TRIPOS>ATOM
      1 C          63.6809   86.8220   14.0850 C.ar    1  UNL1        0.1050
      2 N          64.0144   88.1908   13.5701 N.ar    1  UNL1       -0.1624
      3 N          63.8883   89.1580   14.7097 N.ar    1  UNL1       -0.1929
      4 C          64.1311   90.6367   14.6421 C.2     1  UNL1        0.2811
      5 O          63.9648   91.4810   15.8706 O.2     1  UNL1       -0.2651
      6 C          63.4770   88.3870   15.9288 C.ar    1  UNL1        0.1066
      7 C          63.2026   88.8130   17.3406 C.ar    1  UNL1        0.1181
      8 N          62.8000   87.7952   18.3663 N.ar    1  UNL1       -0.2407
      9 C          62.6718   86.3514   17.9802 C.ar    1  UNL1        0.0990
     10 C          62.9462   85.9254   16.5684 C.ar    1  UNL1        0.0237
     11 C          63.3488   86.9432   15.5427 C.ar    1  UNL1        0.0403
     12 C          63.6775   83.0193   11.6788 C.ar    1  UNL1        0.0162
     13 C          62.7058   84.1143   11.3523 C.ar    1  UNL1        0.0013
     14 C          62.7069   85.3818   12.1544 C.ar    1  UNL1        0.0038
     15 C          63.6798   85.5544   13.2829 C.ar    1  UNL1        0.0469
     16 C          64.6516   84.4594   13.6094 C.ar    1  UNL1        0.1416
     17 F          65.6245   84.6319   14.7380 F       1  UNL1       -0.2041
     18 C          64.6504   83.1918   12.8073 C.ar    1  UNL1        0.0308
     19 O          64.5232   81.6439    9.6434 O.co2   1  UNL1       -0.5446
     20 C          63.6764   81.7517   10.8767 C.2     1  UNL1        0.0729
     21 O          62.8284   80.5920   11.3080 O.co2   1  UNL1       -0.5446
     22 C          64.5401   91.2711   13.3457 C.ar    1  UNL1        0.0723
     23 C          63.6586   91.1461   12.1385 C.ar    1  UNL1        0.0622
     24 CL         62.3680   90.3867   12.2277 Cl      1  UNL1       -0.0821
     25 C          64.0675   91.7804   10.8423 C.ar    1  UNL1        0.0115
     26 C          65.3580   92.5398   10.7532 C.ar    1  UNL1        0.0008
     27 C          66.2395   92.6649   11.9604 C.ar    1  UNL1        0.0041
     28 C          65.8306   92.0305   13.2567 C.ar    1  UNL1        0.0769
     29 C          66.7121   92.1556   14.4639 C.3     1  UNL1        0.4188
     30 F          67.5936   92.2806   15.6710 F       1  UNL1       -0.1659
     31 F          67.3268   90.8231   14.1530 F       1  UNL1       -0.1659
     32 F          66.0973   93.4880   14.7747 F       1  UNL1       -0.1659
@<TRIPOS>UNITY_ATOM_ATTR
19 1
charge -1
@<TRIPOS>BOND
     1    19    20   ar
     2    20    21   ar
     3    20    12    1
     4    12    13   ar
     5    13    14   ar
     6    14    15   ar
     7    15     1    1
     8     1     2   ar
     9     2     3   ar
    10     3     4   am
    11     4     5    2
    12     4    22    1
    13    22    23   ar
    14    23    24    1
    15    23    25   ar
    16    25    26   ar
    17    26    27   ar
    18    27    28   ar
    19    28    29    1
    20    29    30    1
    21    29    31    1
    22    29    32    1
    23     3     6   ar
    24     6     7   ar
    25     7     8   ar
    26     8     9   ar
    27     9    10   ar
    28    10    11   ar
    29    15    16   ar
    30    16    17    1
    31    16    18   ar
    32    18    12   ar
    33    11     1   ar
    34    28    22   ar
    35    11     6   ar
@<TRIPOS>MOLECULE
*****
 32 35 0 0 0
SMALL
GASTEIGER

@<TRIPOS>ATOM
      1 C          63.6913   91.0519   11.6525 C.ar    1  UNL1        0.1050
      2 N          64.5034   92.1340   11.0050 N.ar    1  UNL1       -0.1624
      3 N          65.2732   92.8420   12.0803 N.ar    1  UNL1       -0.1929
      4 C          66.2143   93.9927   11.8789 C.2     1  UNL1        0.2811
      5 O          66.9167   94.6019   13.0559 O.2     1  UNL1       -0.2651
      6 C          64.9368   92.1974   13.3923 C.ar    1  UNL1        0.1066
      7 C          65.3944   92.4750   14.7935 C.ar    1  UNL1        0.1181
      8 N          64.8743   91.6461   15.9304 N.ar    1  UNL1       -0.2407
      9 C          63.8966   90.5397   15.6660 C.ar    1  UNL1        0.0990
     10 C          63.4390   90.2622   14.2647 C.ar    1  UNL1        0.0237
     11 C          63.9591   91.0910   13.1279 C.ar    1  UNL1        0.0403
     12 C          60.9350   88.1900    9.5398 C.ar    1  UNL1        0.0162
     13 C          60.9233   89.6462    9.1801 C.ar    1  UNL1        0.0013
     14 C          61.8420   90.6001    9.8844 C.ar    1  UNL1        0.0038
     15 C          62.7725   90.0979   10.9482 C.ar    1  UNL1        0.0469
     16 C          62.7843   88.6417   11.3079 C.ar    1  UNL1        0.1416
     17 F          63.7148   88.1394   12.3718 F       1  UNL1       -0.2041
     18 C          61.8655   87.6878   10.6037 C.ar    1  UNL1        0.0308
     19 O          58.6625   87.6958    8.3817 O.co2   1  UNL1       -0.5446
     20 C          60.0163   87.2361    8.8355 C.2     1  UNL1        0.0729
     21 O          60.4514   85.8226    8.5851 O.co2   1  UNL1       -0.5446
     22 C          66.4528   94.5341   10.5005 C.ar    1  UNL1        0.0723
     23 C          65.8207   95.8288   10.0834 C.ar    1  UNL1        0.0622
     24 CL         64.9500   96.5822   11.0449 Cl      1  UNL1       -0.0821
     25 C          66.0592   96.3703    8.7051 C.ar    1  UNL1        0.0115
     26 C          66.9300   95.6169    7.7437 C.ar    1  UNL1        0.0008
     27 C          67.5621   94.3221    8.1608 C.ar    1  UNL1        0.0041
     28 C          67.3236   93.7807    9.5391 C.ar    1  UNL1        0.0769
     29 C          67.9557   92.4859    9.9561 C.3     1  UNL1        0.4188
     30 F          68.5879   91.1911   10.3732 F       1  UNL1       -0.1659
     31 F          69.2523   93.1985   10.2033 F       1  UNL1       -0.1659
     32 F          66.6592   91.7733    9.7090 F       1  UNL1       -0.1659
@<TRIPOS>UNITY_ATOM_ATTR
19 1
charge -1
@<TRIPOS>BOND
     1    19    20   ar
     2    20    21   ar
     3    20    12    1
     4    12    13   ar
     5    13    14   ar
     6    14    15   ar
     7    15     1    1
     8     1     2   ar
     9     2     3   ar
    10     3     4   am
    11     4     5    2
    12     4    22    1
    13    22    23   ar
    14    23    24    1
    15    23    25   ar
    16    25    26   ar
    17    26    27   ar
    18    27    28   ar
    19    28    29    1
    20    29    30    1
    21    29    31    1
    22    29    32    1
    23     3     6   ar
    24     6     7   ar
    25     7     8   ar
    26     8     9   ar
    27     9    10   ar
    28    10    11   ar
    29    15    16   ar
    30    16    17    1
    31    16    18   ar
    32    18    12   ar
    33    11     1   ar
    34    28    22   ar
    35    11     6   ar
@<TRIPOS>MOLECULE
*****
 32 35 0 0 0
SMALL
GASTEIGER

@<TRIPOS>ATOM
      1 C          62.3599   86.7385   11.4078 C.ar    1  UNL1        0.1050
      2 N          62.9552   87.9498   12.0623 N.ar    1  UNL1       -0.1624
      3 N          62.4475   89.1630   11.3410 N.ar    1  UNL1       -0.1929
      4 C          62.7889   90.5876   11.6633 C.2     1  UNL1        0.2811
      5 O          62.2013   91.7022   10.8496 O.2     1  UNL1       -0.2651
      6 C          61.5383   88.7015   10.2407 C.ar    1  UNL1        0.1066
      7 C          60.7528   89.4521    9.2066 C.ar    1  UNL1        0.1181
      8 N          59.9131   88.7043    8.2138 N.ar    1  UNL1       -0.2407
      9 C          59.8590   87.2058    8.2552 C.ar    1  UNL1        0.0990
     10 C          60.6446   86.4552    9.2893 C.ar    1  UNL1        0.0237
     11 C          61.4842   87.2030   10.2821 C.ar    1  UNL1        0.0403
     12 C          63.0754   82.4615   12.6105 C.ar    1  UNL1        0.0162
     13 C          62.5511   83.4452   13.6142 C.ar    1  UNL1        0.0013
     14 C          62.3126   84.8708   13.2133 C.ar    1  UNL1        0.0038
     15 C          62.5984   85.3128   11.8088 C.ar    1  UNL1        0.0469
     16 C          63.1227   84.3291   10.8050 C.ar    1  UNL1        0.1416
     17 F          63.4085   84.7710    9.4003 F       1  UNL1       -0.2041
     18 C          63.3612   82.9035   11.2059 C.ar    1  UNL1        0.0308
     19 O          62.7261   79.9202   12.1993 O.co2   1  UNL1       -0.5446
     20 C          63.3139   81.0359   13.0114 C.2     1  UNL1        0.0729
     21 O          64.1401   80.7261   14.2244 O.co2   1  UNL1       -0.5446
     22 C          63.7180   90.8976   12.7995 C.ar    1  UNL1        0.0723
     23 C          63.4435   90.3425   14.1656 C.ar    1  UNL1        0.0622
     24 CL         62.2398   89.4773   14.3956 Cl      1  UNL1       -0.0821
     25 C          64.3725   90.6524   15.3018 C.ar    1  UNL1        0.0115
     26 C          65.5761   91.5175   15.0717 C.ar    1  UNL1        0.0008
     27 C          65.8506   92.0727   13.7055 C.ar    1  UNL1        0.0041
     28 C          64.9216   91.7627   12.5694 C.ar    1  UNL1        0.0769
     29 C          65.1961   92.3179   11.2032 C.3     1  UNL1        0.4188
     30 F          65.4706   92.8730    9.8370 F       1  UNL1       -0.1659
     31 F          65.0133   90.9517   10.6113 F       1  UNL1       -0.1659
     32 F          65.3789   93.6840   11.7950 F       1  UNL1       -0.1659
@<TRIPOS>UNITY_ATOM_ATTR
19 1
charge -1
@<TRIPOS>BOND
     1    19    20   ar
     2    20    21   ar
     3    20    12    1
     4    12    13   ar
     5    13    14   ar
     6    14    15   ar
     7    15     1    1
     8     1     2   ar
     9     2     3   ar
    10     3     4   am
    11     4     5    2
    12     4    22    1
    13    22    23   ar
    14    23    24    1
    15    23    25   ar
    16    25    26   ar
    17    26    27   ar
    18    27    28   ar
    19    28    29    1
    20    29    30    1
    21    29    31    1
    22    29    32    1
    23     3     6   ar
    24     6     7   ar
    25     7     8   ar
    26     8     9   ar
    27     9    10   ar
    28    10    11   ar
    29    15    16   ar
    30    16    17    1
    31    16    18   ar
    32    18    12   ar
    33    11     1   ar
    34    28    22   ar
    35    11     6   ar
@<TRIPOS>MOLECULE
*****
 32 35 0 0 0
SMALL
GASTEIGER

@<TRIPOS>ATOM
      1 C          63.8955   88.1235   14.2774 C.ar    1  UNL1        0.1050
      2 N          63.7107   87.0188   13.2797 N.ar    1  UNL1       -0.1624
      3 N          63.1106   85.8445   13.9944 N.ar    1  UNL1       -0.1929
      4 C          62.7583   84.5231   13.3780 C.2     1  UNL1        0.2811
      5 O          62.1615   83.4367   14.2226 O.2     1  UNL1       -0.2651
      6 C          62.9245   86.2234   15.4338 C.ar    1  UNL1        0.1066
      7 C          62.3760   85.4679   16.6077 C.ar    1  UNL1        0.1181
      8 N          62.3126   86.1209   17.9566 N.ar    1  UNL1       -0.2407
      9 C          62.7978   87.5294   18.1315 C.ar    1  UNL1        0.0990
     10 C          63.3463   88.2850   16.9575 C.ar    1  UNL1        0.0237
     11 C          63.4096   87.6320   15.6087 C.ar    1  UNL1        0.0403
     12 C          65.6071   92.1973   13.4261 C.ar    1  UNL1        0.0162
     13 C          66.1443   91.3810   14.5641 C.ar    1  UNL1        0.0013
     14 C          65.5737   90.0230   14.8478 C.ar    1  UNL1        0.0038
     15 C          64.4661   89.4814   13.9937 C.ar    1  UNL1        0.0469
     16 C          63.9289   90.2979   12.8556 C.ar    1  UNL1        0.1416
     17 F          62.8212   89.7563   12.0014 F       1  UNL1       -0.2041
     18 C          64.4994   91.6558   12.5719 C.ar    1  UNL1        0.0308
     19 O          66.2900   94.0408   11.7276 O.co2   1  UNL1       -0.5446
     20 C          66.1777   93.5553   13.1423 C.2     1  UNL1        0.0729
     21 O          66.6358   94.4276   14.2733 O.co2   1  UNL1       -0.5446
     22 C          63.0030   84.2881   11.9167 C.ar    1  UNL1        0.0723
     23 C          62.4613   85.2502   10.9014 C.ar    1  UNL1        0.0622
     24 CL         61.6749   86.4472   11.3472 Cl      1  UNL1       -0.0821
     25 C          62.7059   85.0153    9.4403 C.ar    1  UNL1        0.0115
     26 C          63.4924   83.8182    8.9945 C.ar    1  UNL1        0.0008
     27 C          64.0341   82.8562   10.0099 C.ar    1  UNL1        0.0041
     28 C          63.7894   83.0911   11.4710 C.ar    1  UNL1        0.0769
     29 C          64.3312   82.1290   12.4864 C.3     1  UNL1        0.4188
     30 F          64.8729   81.1670   13.5017 F       1  UNL1       -0.1659
     31 F          65.3294   83.1577   12.9284 F       1  UNL1       -0.1659
     32 F          63.3329   81.1004   12.0443 F       1  UNL1       -0.1659
@<TRIPOS>UNITY_ATOM_ATTR
19 1
charge -1
@<TRIPOS>BOND
     1    19    20   ar
     2    20    21   ar
     3    20    12    1
     4    12    13   ar
     5    13    14   ar
     6    14    15   ar
     7    15     1    1
     8     1     2   ar
     9     2     3   ar
    10     3     4   am
    11     4     5    2
    12     4    22    1
    13    22    23   ar
    14    23    24    1
    15    23    25   ar
    16    25    26   ar
    17    26    27   ar
    18    27    28   ar
    19    28    29    1
    20    29    30    1
    21    29    31    1
    22    29    32    1
    23     3     6   ar
    24     6     7   ar
    25     7     8   ar
    26     8     9   ar
    27     9    10   ar
    28    10    11   ar
    29    15    16   ar
    30    16    17    1
    31    16    18   ar
    32    18    12   ar
    33    11     1   ar
    34    28    22   ar
    35    11     6   ar
@<TRIPOS>MOLECULE
*****
 32 35 0 0 0
SMALL
GASTEIGER

@<TRIPOS>ATOM
      1 C          62.7012   87.0913   11.6459 C.ar    1  UNL1        0.1050
      2 N          63.4015   88.2892   12.2156 N.ar    1  UNL1       -0.1624
      3 N          62.9172   89.5029   11.4793 N.ar    1  UNL1       -0.1929
      4 C          63.3555   90.9163   11.7246 C.2     1  UNL1        0.2811
      5 O          62.7805   92.0330   10.9048 O.2     1  UNL1       -0.2651
      6 C          61.9176   89.0552   10.4544 C.ar    1  UNL1        0.1066
      7 C          61.1117   89.8121    9.4408 C.ar    1  UNL1        0.1181
      8 N          60.1723   89.0786    8.5301 N.ar    1  UNL1       -0.2407
      9 C          60.0388   87.5881    8.6331 C.ar    1  UNL1        0.0990
     10 C          60.8447   86.8311    9.6467 C.ar    1  UNL1        0.0237
     11 C          61.7841   87.5647   10.5574 C.ar    1  UNL1        0.0403
     12 C          63.2545   82.8261   12.9697 C.ar    1  UNL1        0.0162
     13 C          62.6344   83.1232   11.6365 C.ar    1  UNL1        0.0013
     14 C          62.4500   84.5450   11.1953 C.ar    1  UNL1        0.0038
     15 C          62.8856   85.6696   12.0871 C.ar    1  UNL1        0.0469
     16 C          63.5057   85.3724   13.4203 C.ar    1  UNL1        0.1416
     17 F          63.9414   86.4970   14.3122 F       1  UNL1       -0.2041
     18 C          63.6902   83.9507   13.8615 C.ar    1  UNL1        0.0308
     19 O          64.4016   81.0806   14.5147 O.co2   1  UNL1       -0.5446
     20 C          63.4389   81.4044   13.4109 C.2     1  UNL1        0.0729
     21 O          62.6607   80.3065   12.7483 O.co2   1  UNL1       -0.5446
     22 C          64.3690   91.2130   12.7900 C.ar    1  UNL1        0.0723
     23 C          64.1736   90.6830   14.1796 C.ar    1  UNL1        0.0622
     24 CL         62.9647   89.8562   14.5037 Cl      1  UNL1       -0.0821
     25 C          65.1869   90.9796   15.2449 C.ar    1  UNL1        0.0115
     26 C          66.3958   91.8064   14.9207 C.ar    1  UNL1        0.0008
     27 C          66.5912   92.3365   13.5312 C.ar    1  UNL1        0.0041
     28 C          65.5778   92.0398   12.4658 C.ar    1  UNL1        0.0769
     29 C          65.7733   92.5699   11.0763 C.3     1  UNL1        0.4188
     30 F          65.9687   93.1000    9.6868 F       1  UNL1       -0.1659
     31 F          65.0323   93.8198   11.4489 F       1  UNL1       -0.1659
     32 F          66.5142   91.3200   10.7037 F       1  UNL1       -0.1659
@<TRIPOS>UNITY_ATOM_ATTR
19 1
charge -1
@<TRIPOS>BOND
     1    19    20   ar
     2    20    21   ar
     3    20    12    1
     4    12    13   ar
     5    13    14   ar
     6    14    15   ar
     7    15     1    1
     8     1     2   ar
     9     2     3   ar
    10     3     4   am
    11     4     5    2
    12     4    22    1
    13    22    23   ar
    14    23    24    1
    15    23    25   ar
    16    25    26   ar
    17    26    27   ar
    18    27    28   ar
    19    28    29    1
    20    29    30    1
    21    29    31    1
    22    29    32    1
    23     3     6   ar
    24     6     7   ar
    25     7     8   ar
    26     8     9   ar
    27     9    10   ar
    28    10    11   ar
    29    15    16   ar
    30    16    17    1
    31    16    18   ar
    32    18    12   ar
    33    11     1   ar
    34    28    22   ar
    35    11     6   ar
@<TRIPOS>MOLECULE
*****
 32 35 0 0 0
SMALL
GASTEIGER

@<TRIPOS>ATOM
      1 C          63.2705   88.5816   12.3243 C.ar    1  UNL1        0.1050
      2 N          63.3569   87.1245   12.6699 N.ar    1  UNL1       -0.1624
      3 N          62.4489   86.3735   11.7417 N.ar    1  UNL1       -0.1929
      4 C          62.2273   84.8899   11.7341 C.2     1  UNL1        0.2811
      5 O          61.2841   84.2776   10.7416 O.2     1  UNL1       -0.2651
      6 C          61.8014   87.3664   10.8225 C.ar    1  UNL1        0.1066
      7 C          60.8151   87.2041    9.7042 C.ar    1  UNL1        0.1181
      8 N          60.3365   88.4065    8.9459 N.ar    1  UNL1       -0.2407
      9 C          60.8443   89.7713    9.3059 C.ar    1  UNL1        0.0990
     10 C          61.8307   89.9335   10.4243 C.ar    1  UNL1        0.0237
     11 C          62.3092   88.7311   11.1825 C.ar    1  UNL1        0.0403
     12 C          65.5035   91.9187   14.3561 C.ar    1  UNL1        0.0162
     13 C          65.0589   92.0720   12.9317 C.ar    1  UNL1        0.0013
     14 C          64.3146   90.9597   12.2545 C.ar    1  UNL1        0.0038
     15 C          64.0148   89.6940   13.0015 C.ar    1  UNL1        0.0469
     16 C          64.4595   89.5407   14.4260 C.ar    1  UNL1        0.1416
     17 F          64.1598   88.2750   15.1731 F       1  UNL1       -0.2041
     18 C          65.2038   90.6530   15.1032 C.ar    1  UNL1        0.0308
     19 O          66.5747   94.2842   14.2766 O.co2   1  UNL1       -0.5446
     20 C          66.2478   93.0311   15.0333 C.2     1  UNL1        0.0729
     21 O          66.6650   92.8903   16.4672 O.co2   1  UNL1       -0.5446
     22 C          62.9491   84.0187   12.7191 C.ar    1  UNL1        0.0723
     23 C          62.6934   84.1770   14.1886 C.ar    1  UNL1        0.0622
     24 CL         61.7160   85.2066   14.6732 Cl      1  UNL1       -0.0821
     25 C          63.4151   83.3059   15.1736 C.ar    1  UNL1        0.0115
     26 C          64.3924   82.2764   14.6890 C.ar    1  UNL1        0.0008
     27 C          64.6481   82.1180   13.2195 C.ar    1  UNL1        0.0041
     28 C          63.9264   82.9892   12.2345 C.ar    1  UNL1        0.0769
     29 C          64.1821   82.8308   10.7650 C.3     1  UNL1        0.4188
     30 F          64.4377   82.6725    9.2954 F       1  UNL1       -0.1659
     31 F          63.1385   81.7553   10.6993 F       1  UNL1       -0.1659
     32 F          65.2256   83.9063   10.8306 F       1  UNL1       -0.1659
@<TRIPOS>UNITY_ATOM_ATTR
19 1
charge -1
@<TRIPOS>BOND
     1    19    20   ar
     2    20    21   ar
     3    20    12    1
     4    12    13   ar
     5    13    14   ar
     6    14    15   ar
     7    15     1    1
     8     1     2   ar
     9     2     3   ar
    10     3     4   am
    11     4     5    2
    12     4    22    1
    13    22    23   ar
    14    23    24    1
    15    23    25   ar
    16    25    26   ar
    17    26    27   ar
    18    27    28   ar
    19    28    29    1
    20    29    30    1
    21    29    31    1
    22    29    32    1
    23     3     6   ar
    24     6     7   ar
    25     7     8   ar
    26     8     9   ar
    27     9    10   ar
    28    10    11   ar
    29    15    16   ar
    30    16    17    1
    31    16    18   ar
    32    18    12   ar
    33    11     1   ar
    34    28    22   ar
    35    11     6   ar
@<TRIPOS>MOLECULE
*****
 32 35 0 0 0
SMALL
GASTEIGER

@<TRIPOS>ATOM
      1 C          63.9735   88.1720   14.2479 C.ar    1  UNL1        0.1050
      2 N          63.8526   87.0316   13.2810 N.ar    1  UNL1       -0.1624
      3 N          63.2701   85.8608   14.0157 N.ar    1  UNL1       -0.1929
      4 C          62.9779   84.5102   13.4320 C.2     1  UNL1        0.2811
      5 O          62.3921   83.4314   14.2939 O.2     1  UNL1       -0.2651
      6 C          63.0309   86.2775   15.4367 C.ar    1  UNL1        0.1066
      7 C          62.4735   85.5409   16.6185 C.ar    1  UNL1        0.1181
      8 N          62.3508   86.2327   17.9437 N.ar    1  UNL1       -0.2407
      9 C          62.7856   87.6612   18.0872 C.ar    1  UNL1        0.0990
     10 C          63.3430   88.3978   16.9054 C.ar    1  UNL1        0.0237
     11 C          63.4657   87.7060   15.5802 C.ar    1  UNL1        0.0403
     12 C          65.5778   92.2716   13.3153 C.ar    1  UNL1        0.0162
     13 C          66.1586   91.4788   14.4485 C.ar    1  UNL1        0.0013
     14 C          65.6238   90.1123   14.7593 C.ar    1  UNL1        0.0038
     15 C          64.5083   89.5385   13.9370 C.ar    1  UNL1        0.0469
     16 C          63.9275   90.3313   12.8037 C.ar    1  UNL1        0.1416
     17 F          62.8119   89.7576   11.9814 F       1  UNL1       -0.2041
     18 C          64.4623   91.6978   12.4929 C.ar    1  UNL1        0.0308
     19 O          66.5940   94.5252   14.1140 O.co2   1  UNL1       -0.5446
     20 C          66.1126   93.6381   13.0045 C.2     1  UNL1        0.0729
     21 O          66.1660   94.1174   11.5841 O.co2   1  UNL1       -0.5446
     22 C          63.2716   84.2385   11.9863 C.ar    1  UNL1        0.0723
     23 C          64.1528   83.0865   11.6036 C.ar    1  UNL1        0.0622
     24 CL         64.7403   82.2063   12.6667 Cl      1  UNL1       -0.0821
     25 C          64.4465   82.8148   10.1580 C.ar    1  UNL1        0.0115
     26 C          63.8590   83.6950    9.0951 C.ar    1  UNL1        0.0008
     27 C          62.9778   84.8470    9.4777 C.ar    1  UNL1        0.0041
     28 C          62.6841   85.1188   10.9233 C.ar    1  UNL1        0.0769
     29 C          61.8029   86.2708   11.3060 C.3     1  UNL1        0.4188
     30 F          60.9217   87.4227   11.6886 F       1  UNL1       -0.1659
     31 F          62.6316   87.1872   10.4554 F       1  UNL1       -0.1659
     32 F          60.9742   85.3543   12.1565 F       1  UNL1       -0.1659
@<TRIPOS>UNITY_ATOM_ATTR
19 1
charge -1
@<TRIPOS>BOND
     1    19    20   ar
     2    20    21   ar
     3    20    12    1
     4    12    13   ar
     5    13    14   ar
     6    14    15   ar
     7    15     1    1
     8     1     2   ar
     9     2     3   ar
    10     3     4   am
    11     4     5    2
    12     4    22    1
    13    22    23   ar
    14    23    24    1
    15    23    25   ar
    16    25    26   ar
    17    26    27   ar
    18    27    28   ar
    19    28    29    1
    20    29    30    1
    21    29    31    1
    22    29    32    1
    23     3     6   ar
    24     6     7   ar
    25     7     8   ar
    26     8     9   ar
    27     9    10   ar
    28    10    11   ar
    29    15    16   ar
    30    16    17    1
    31    16    18   ar
    32    18    12   ar
    33    11     1   ar
    34    28    22   ar
    35    11     6   ar
@<TRIPOS>MOLECULE
*****
 32 35 0 0 0
SMALL
GASTEIGER

@<TRIPOS>ATOM
      1 C          63.9847   90.8715   12.2024 C.ar    1  UNL1        0.1050
      2 N          64.8274   91.9430   11.5764 N.ar    1  UNL1       -0.1624
      3 N          65.4357   92.7576   12.6793 N.ar    1  UNL1       -0.1929
      4 C          66.3502   93.9337   12.5052 C.2     1  UNL1        0.2811
      5 O          66.8833   94.6538   13.7082 O.2     1  UNL1       -0.2651
      6 C          64.9690   92.1896   13.9868 C.ar    1  UNL1        0.1066
      7 C          65.2448   92.5832   15.4077 C.ar    1  UNL1        0.1181
      8 N          64.6237   91.8111   16.5338 N.ar    1  UNL1       -0.2407
      9 C          63.7269   90.6454   16.2390 C.ar    1  UNL1        0.0990
     10 C          63.4511   90.2518   14.8181 C.ar    1  UNL1        0.0237
     11 C          64.0722   91.0239   13.6920 C.ar    1  UNL1        0.0403
     12 C          61.6106   87.7481    9.9980 C.ar    1  UNL1        0.0162
     13 C          62.2448   87.4164   11.3162 C.ar    1  UNL1        0.0013
     14 C          63.0362   88.4575   12.0510 C.ar    1  UNL1        0.0038
     15 C          63.1933   89.8304   11.4676 C.ar    1  UNL1        0.0469
     16 C          62.5590   90.1622   10.1493 C.ar    1  UNL1        0.1416
     17 F          62.7162   91.5351    9.5659 F       1  UNL1       -0.2041
     18 C          61.7677   89.1210    9.4146 C.ar    1  UNL1        0.0308
     19 O          60.9893   85.2564    9.6047 O.co2   1  UNL1       -0.5446
     20 C          60.8193   86.7070    9.2633 C.2     1  UNL1        0.0729
     21 O          59.8579   87.1166    8.1872 O.co2   1  UNL1       -0.5446
     22 C          66.7317   94.3898   11.1280 C.ar    1  UNL1        0.0723
     23 C          66.2649   95.7230   10.6233 C.ar    1  UNL1        0.0622
     24 CL         65.4166   96.6000   11.4958 Cl      1  UNL1       -0.0821
     25 C          66.6463   96.1791    9.2463 C.ar    1  UNL1        0.0115
     26 C          67.4946   95.3021    8.3738 C.ar    1  UNL1        0.0008
     27 C          67.9614   93.9689    8.8785 C.ar    1  UNL1        0.0041
     28 C          67.5800   93.5128   10.2556 C.ar    1  UNL1        0.0769
     29 C          68.0469   92.1796   10.7603 C.3     1  UNL1        0.4188
     30 F          68.5137   90.8464   11.2650 F       1  UNL1       -0.1659
     31 F          68.3214   92.7848   12.1051 F       1  UNL1       -0.1659
     32 F          67.7723   91.5744    9.4156 F       1  UNL1       -0.1659
@<TRIPOS>UNITY_ATOM_ATTR
19 1
charge -1
@<TRIPOS>BOND
     1    19    20   ar
     2    20    21   ar
     3    20    12    1
     4    12    13   ar
     5    13    14   ar
     6    14    15   ar
     7    15     1    1
     8     1     2   ar
     9     2     3   ar
    10     3     4   am
    11     4     5    2
    12     4    22    1
    13    22    23   ar
    14    23    24    1
    15    23    25   ar
    16    25    26   ar
    17    26    27   ar
    18    27    28   ar
    19    28    29    1
    20    29    30    1
    21    29    31    1
    22    29    32    1
    23     3     6   ar
    24     6     7   ar
    25     7     8   ar
    26     8     9   ar
    27     9    10   ar
    28    10    11   ar
    29    15    16   ar
    30    16    17    1
    31    16    18   ar
    32    18    12   ar
    33    11     1   ar
    34    28    22   ar
    35    11     6   ar
