@<TRIPOS>MOLECULE
*****
 41 46 0 0 0
SMALL
GASTEIGER

@<TRIPOS>ATOM
      1 C          59.2242   88.7545    7.2915 C.2     1  UNL1        0.2252
      2 O          58.2568   87.6170    7.1503 O.2     1  UNL1       -0.2749
      3 N          60.1356   88.8205    8.4811 N.am    1  UNL1       -0.2794
      4 C          60.0794   87.7491    9.5294 C.3     1  UNL1        0.0953
      5 C          60.9907   87.8152   10.7189 C.3     1  UNL1        0.0442
      6 C          61.9583   88.9527   10.8603 C.3     1  UNL1        0.0933
      7 C          62.0144   90.0241    9.8120 C.3     1  UNL1        0.0442
      8 C          61.1031   89.9580    8.6224 C.3     1  UNL1        0.0953
      9 N          62.8697   89.0188   12.0498 N.ar    1  UNL1       -0.2813
     10 C          63.4921   90.2607   12.6157 C.ar    1  UNL1        0.3376
     11 O          63.3126   91.6546   12.0915 O.2     1  UNL1       -0.2458
     12 N          64.3257   89.8639   13.7980 N.ar    1  UNL1       -0.2278
     13 C          64.2184   88.3769   13.9628 C.ar    1  UNL1        0.0891
     14 C          64.8238   87.4309   14.9571 C.ar    1  UNL1        0.0488
     15 C          64.5294   85.9627   14.8709 C.ar    1  UNL1        0.1417
     16 F          65.1348   85.0167   15.8652 F       1  UNL1       -0.2041
     17 C          63.6295   85.4404   13.7904 C.ar    1  UNL1        0.0312
     18 C          63.0240   86.3863   12.7962 C.ar    1  UNL1        0.0211
     19 C          63.3185   87.8545   12.8823 C.ar    1  UNL1        0.0802
     20 C          65.1261   90.7914   14.6636 C.ar    1  UNL1        0.2404
     21 N          66.5925   90.9771   14.4083 N.ar    1  UNL1       -0.2094
     22 C          67.3929   91.9046   15.2739 C.ar    1  UNL1        0.1037
     23 C          66.7269   92.6464   16.3947 C.ar    1  UNL1        0.0415
     24 C          65.2605   92.4606   16.6499 C.ar    1  UNL1        0.1037
     25 N          64.4601   91.5332   15.7843 N.ar    1  UNL1       -0.2094
     26 N          59.3928   91.9688    4.1467 N.3     1  UNL1       -0.2689
     27 C          58.0861   91.6245    4.7981 C.3     1  UNL1        0.0729
     28 C          58.0299   90.5530    5.8463 C.3     1  UNL1        0.0264
     29 C          59.2804   89.8259    6.2432 C.3     1  UNL1        0.0795
     30 C          60.5870   90.1702    5.5920 C.3     1  UNL1        0.0264
     31 C          60.6432   91.2416    4.5437 C.3     1  UNL1        0.0729
     32 C          59.4489   93.0402    3.0985 C.3     1  UNL1        0.0993
     33 N          64.4810   92.9681    1.8050 N.pl3   1  UNL1       -0.3426
     34 C          63.0361   92.9712    1.4022 C.ar    1  UNL1        0.1251
     35 C          61.9649   93.0041    2.4518 C.ar    1  UNL1        0.0310
     36 C          60.5200   93.0072    2.0489 C.ar    1  UNL1       -0.0018
     37 C          60.1463   92.9774    0.5965 C.ar    1  UNL1        0.0179
     38 C          61.2174   92.9444   -0.4530 C.ar    1  UNL1        0.1000
     39 N          62.6623   92.9413   -0.0501 N.ar    1  UNL1       -0.2296
     40 H          64.7264   92.9877    2.7582 H       1  UNL1        0.1437
     41 H          65.1840   92.9464    1.1161 H       1  UNL1        0.1437
@<TRIPOS>BOND
     1    33    34    1
     2    34    35   ar
     3    35    36   ar
     4    36    32    1
     5    32    26    1
     6    26    27    1
     7    27    28    1
     8    28    29    1
     9    29     1    1
    10     1     2    2
    11     1     3   am
    12     3     4    1
    13     4     5    1
    14     5     6    1
    15     6     9    1
    16     9    10   ar
    17    10    11    2
    18    10    12   ar
    19    12    20    1
    20    20    21   ar
    21    21    22   ar
    22    22    23   ar
    23    23    24   ar
    24    24    25   ar
    25    12    13   ar
    26    13    14   ar
    27    14    15   ar
    28    15    16    1
    29    15    17   ar
    30    17    18   ar
    31    18    19   ar
    32     6     7    1
    33     7     8    1
    34    29    30    1
    35    30    31    1
    36    36    37   ar
    37    37    38   ar
    38    38    39   ar
    39    39    34   ar
    40    31    26    1
    41     8     3    1
    42    19     9   ar
    43    25    20   ar
    44    19    13   ar
    45    33    40    1
    46    33    41    1
@<TRIPOS>MOLECULE
*****
 41 46 0 0 0
SMALL
GASTEIGER

@<TRIPOS>ATOM
      1 C          62.5934   86.5693   16.6310 C.2     1  UNL1        0.2252
      2 O          61.6851   86.7316   17.8136 O.2     1  UNL1       -0.2749
      3 N          63.3057   87.7611   16.0634 N.am    1  UNL1       -0.2794
      4 C          63.1096   89.1151   16.6783 C.3     1  UNL1        0.0953
      5 C          63.8219   90.3070   16.1107 C.3     1  UNL1        0.0442
      6 C          64.7303   90.1448   14.9280 C.3     1  UNL1        0.0933
      7 C          64.9263   88.7908   14.3131 C.3     1  UNL1        0.0442
      8 C          64.2140   87.5990   14.8808 C.3     1  UNL1        0.0953
      9 N          65.4425   91.3366   14.3604 N.ar    1  UNL1       -0.2813
     10 C          65.1381   92.0054   13.0527 C.ar    1  UNL1        0.3376
     11 O          64.0679   91.5998   12.0831 O.2     1  UNL1       -0.2458
     12 N          66.0917   93.1510   12.8849 N.ar    1  UNL1       -0.2278
     13 C          66.9855   93.1903   14.0889 C.ar    1  UNL1        0.0891
     14 C          68.1129   94.1022   14.4727 C.ar    1  UNL1        0.0488
     15 C          68.8391   93.8928   15.7683 C.ar    1  UNL1        0.1417
     16 F          69.9665   94.8048   16.1522 F       1  UNL1       -0.2041
     17 C          68.4379   92.7714   16.6802 C.ar    1  UNL1        0.0312
     18 C          67.3105   91.8595   16.2965 C.ar    1  UNL1        0.0211
     19 C          66.5843   92.0689   15.0008 C.ar    1  UNL1        0.0802
     20 C          66.1426   94.0922   11.7181 C.ar    1  UNL1        0.2404
     21 N          65.8235   95.5451   11.9119 N.ar    1  UNL1       -0.2094
     22 C          65.8744   96.4863   10.7450 C.ar    1  UNL1        0.1037
     23 C          66.2443   95.9747    9.3843 C.ar    1  UNL1        0.0415
     24 C          66.5634   94.5219    9.1906 C.ar    1  UNL1        0.1037
     25 N          66.5125   93.5807   10.3575 N.ar    1  UNL1       -0.2094
     26 N          63.1817   82.5073   14.7861 N.3     1  UNL1       -0.2689
     27 C          61.8037   83.0906   14.8920 C.3     1  UNL1        0.0729
     28 C          61.6076   84.4446   15.5069 C.3     1  UNL1        0.0264
     29 C          62.7895   85.2153   16.0160 C.3     1  UNL1        0.0795
     30 C          64.1674   84.6321   15.9102 C.3     1  UNL1        0.0264
     31 C          64.3635   83.2781   15.2952 C.3     1  UNL1        0.0729
     32 C          63.3778   81.1533   14.1711 C.3     1  UNL1        0.0993
     33 N          62.4592   78.2120    9.9872 N.pl3   1  UNL1       -0.3426
     34 C          62.8737   79.5222   10.5885 C.ar    1  UNL1        0.1251
     35 C          62.9185   79.6827   12.0792 C.ar    1  UNL1        0.0310
     36 C          63.3330   80.9929   12.6804 C.ar    1  UNL1       -0.0018
     37 C          63.7026   82.1428   11.7909 C.ar    1  UNL1        0.0179
     38 C          63.6578   81.9823   10.3002 C.ar    1  UNL1        0.1000
     39 N          63.2433   80.6721    9.6990 N.ar    1  UNL1       -0.2296
     40 H          62.2166   77.4573   10.5710 H       1  UNL1        0.1437
     41 H          62.4299   78.1067    9.0088 H       1  UNL1        0.1437
@<TRIPOS>BOND
     1    33    34    1
     2    34    35   ar
     3    35    36   ar
     4    36    32    1
     5    32    26    1
     6    26    27    1
     7    27    28    1
     8    28    29    1
     9    29     1    1
    10     1     2    2
    11     1     3   am
    12     3     4    1
    13     4     5    1
    14     5     6    1
    15     6     9    1
    16     9    10   ar
    17    10    11    2
    18    10    12   ar
    19    12    20    1
    20    20    21   ar
    21    21    22   ar
    22    22    23   ar
    23    23    24   ar
    24    24    25   ar
    25    12    13   ar
    26    13    14   ar
    27    14    15   ar
    28    15    16    1
    29    15    17   ar
    30    17    18   ar
    31    18    19   ar
    32     6     7    1
    33     7     8    1
    34    29    30    1
    35    30    31    1
    36    36    37   ar
    37    37    38   ar
    38    38    39   ar
    39    39    34   ar
    40    31    26    1
    41     8     3    1
    42    19     9   ar
    43    25    20   ar
    44    19    13   ar
    45    33    40    1
    46    33    41    1
@<TRIPOS>MOLECULE
*****
 41 46 0 0 0
SMALL
GASTEIGER

@<TRIPOS>ATOM
      1 C          58.7324   90.5281    5.9220 C.2     1  UNL1        0.2252
      2 O          57.2763   90.8533    6.0767 O.2     1  UNL1       -0.2749
      3 N          59.5270   91.1538    4.8143 N.am    1  UNL1       -0.2794
      4 C          58.8655   92.1048    3.8614 C.3     1  UNL1        0.0953
      5 C          59.6601   92.7306    2.7537 C.3     1  UNL1        0.0442
      6 C          61.1163   92.4054    2.5990 C.3     1  UNL1        0.0933
      7 C          61.7777   91.4545    3.5519 C.3     1  UNL1        0.0442
      8 C          60.9831   90.8287    4.6596 C.3     1  UNL1        0.0953
      9 N          61.9110   93.0312    1.4913 N.ar    1  UNL1       -0.2813
     10 C          61.7047   92.8067    0.0226 C.ar    1  UNL1        0.3376
     11 O          60.6676   91.9171   -0.5963 O.2     1  UNL1       -0.2458
     12 N          62.7176   93.6281   -0.7186 N.ar    1  UNL1       -0.2278
     13 C          63.5499   94.3602    0.2921 C.ar    1  UNL1        0.0891
     14 C          64.6973   95.3151    0.1452 C.ar    1  UNL1        0.0488
     15 C          65.3461   95.9010    1.3640 C.ar    1  UNL1        0.1417
     16 F          66.4936   96.8560    1.2171 F       1  UNL1       -0.2041
     17 C          64.8476   95.5321    2.7298 C.ar    1  UNL1        0.0312
     18 C          63.7002   94.5772    2.8767 C.ar    1  UNL1        0.0211
     19 C          63.0513   93.9913    1.6578 C.ar    1  UNL1        0.0802
     20 C          62.8713   93.7041   -2.2087 C.ar    1  UNL1        0.2404
     21 N          63.7741   92.7399   -2.9198 N.ar    1  UNL1       -0.2094
     22 C          63.9278   92.8159   -4.4099 C.ar    1  UNL1        0.1037
     23 C          63.1788   93.8560   -5.1891 C.ar    1  UNL1        0.0415
     24 C          62.2761   94.8201   -4.4781 C.ar    1  UNL1        0.1037
     25 N          62.1224   94.7442   -2.9879 N.ar    1  UNL1       -0.2094
     26 N          60.7169   87.6752    8.7809 N.3     1  UNL1       -0.2689
     27 C          59.9706   87.1473    7.5915 C.3     1  UNL1        0.0729
     28 C          59.3091   88.0983    6.6385 C.3     1  UNL1        0.0264
     29 C          59.3939   89.5771    6.8750 C.3     1  UNL1        0.0795
     30 C          60.1401   90.1050    8.0643 C.3     1  UNL1        0.0264
     31 C          60.8016   89.1541    9.0172 C.3     1  UNL1        0.0729
     32 C          61.3784   86.7243    9.7338 C.3     1  UNL1        0.0993
     33 N          63.9526   85.8873   14.1692 N.pl3   1  UNL1       -0.3426
     34 C          63.4246   86.8341   13.1324 C.ar    1  UNL1        0.1251
     35 C          62.6655   86.3058   11.9514 C.ar    1  UNL1        0.0310
     36 C          62.1374   87.2526   10.9147 C.ar    1  UNL1       -0.0018
     37 C          62.3685   88.7277   11.0590 C.ar    1  UNL1        0.0179
     38 C          63.1276   89.2559   12.2400 C.ar    1  UNL1        0.1000
     39 N          63.6556   88.3091   13.2767 N.ar    1  UNL1       -0.2296
     40 H          63.8010   84.9192   14.0746 H       1  UNL1        0.1437
     41 H          64.4509   86.2341   14.9443 H       1  UNL1        0.1437
@<TRIPOS>BOND
     1    33    34    1
     2    34    35   ar
     3    35    36   ar
     4    36    32    1
     5    32    26    1
     6    26    27    1
     7    27    28    1
     8    28    29    1
     9    29     1    1
    10     1     2    2
    11     1     3   am
    12     3     4    1
    13     4     5    1
    14     5     6    1
    15     6     9    1
    16     9    10   ar
    17    10    11    2
    18    10    12   ar
    19    12    20    1
    20    20    21   ar
    21    21    22   ar
    22    22    23   ar
    23    23    24   ar
    24    24    25   ar
    25    12    13   ar
    26    13    14   ar
    27    14    15   ar
    28    15    16    1
    29    15    17   ar
    30    17    18   ar
    31    18    19   ar
    32     6     7    1
    33     7     8    1
    34    29    30    1
    35    30    31    1
    36    36    37   ar
    37    37    38   ar
    38    38    39   ar
    39    39    34   ar
    40    31    26    1
    41     8     3    1
    42    19     9   ar
    43    25    20   ar
    44    19    13   ar
    45    33    40    1
    46    33    41    1
@<TRIPOS>MOLECULE
*****
 41 46 0 0 0
SMALL
GASTEIGER

@<TRIPOS>ATOM
      1 C          58.5689   90.5955    5.9234 C.2     1  UNL1        0.2252
      2 O          57.0804   90.7797    5.9425 O.2     1  UNL1       -0.2749
      3 N          59.3848   91.1966    4.8175 N.am    1  UNL1       -0.2794
      4 C          58.7122   91.9819    3.7308 C.3     1  UNL1        0.0953
      5 C          59.5280   92.5831    2.6249 C.3     1  UNL1        0.0442
      6 C          61.0167   92.3988    2.6057 C.3     1  UNL1        0.0933
      7 C          61.6892   91.6135    3.6923 C.3     1  UNL1        0.0442
      8 C          60.8733   91.0124    4.7982 C.3     1  UNL1        0.0953
      9 N          61.8325   93.0000    1.4998 N.ar    1  UNL1       -0.2813
     10 C          61.6635   92.7322    0.0336 C.ar    1  UNL1        0.3376
     11 O          60.6488   91.8162   -0.5841 O.2     1  UNL1       -0.2458
     12 N          62.6872   93.5411   -0.7064 N.ar    1  UNL1       -0.2278
     13 C          63.4889   94.3089    0.3025 C.ar    1  UNL1        0.0891
     14 C          64.6317   95.2693    0.1557 C.ar    1  UNL1        0.0488
     15 C          65.2462   95.8953    1.3724 C.ar    1  UNL1        0.1417
     16 F          66.3891   96.8558    1.2256 F       1  UNL1       -0.2041
     17 C          64.7180   95.5609    2.7359 C.ar    1  UNL1        0.0312
     18 C          63.5753   94.6004    2.8827 C.ar    1  UNL1        0.0211
     19 C          62.9607   93.9744    1.6660 C.ar    1  UNL1        0.0802
     20 C          62.8760   93.5762   -2.1940 C.ar    1  UNL1        0.2404
     21 N          61.9944   94.4448   -3.0417 N.ar    1  UNL1       -0.2094
     22 C          62.1832   94.4799   -4.5294 C.ar    1  UNL1        0.1037
     23 C          63.2536   93.6464   -5.1694 C.ar    1  UNL1        0.0415
     24 C          64.1352   92.7779   -4.3217 C.ar    1  UNL1        0.1037
     25 N          63.9463   92.7428   -2.8341 N.ar    1  UNL1       -0.2094
     26 N          60.5868   88.2395    9.1833 N.3     1  UNL1       -0.2689
     27 C          59.7022   87.5429    8.1921 C.3     1  UNL1        0.0729
     28 C          59.0296   88.3283    7.1055 C.3     1  UNL1        0.0264
     29 C          59.2416   89.8102    7.0100 C.3     1  UNL1        0.0795
     30 C          60.1261   90.5067    8.0011 C.3     1  UNL1        0.0264
     31 C          60.7988   89.7214    9.0878 C.3     1  UNL1        0.0729
     32 C          61.2595   87.4542   10.2700 C.3     1  UNL1        0.0993
     33 N          63.6253   83.0691   11.7441 N.pl3   1  UNL1       -0.3426
     34 C          63.2362   84.0358   10.6651 C.ar    1  UNL1        0.1251
     35 C          62.4424   85.2617   11.0070 C.ar    1  UNL1        0.0310
     36 C          62.0533   86.2283    9.9280 C.ar    1  UNL1       -0.0018
     37 C          62.4580   85.9690    8.5071 C.ar    1  UNL1        0.0179
     38 C          63.2519   84.7431    8.1652 C.ar    1  UNL1        0.1000
     39 N          63.6409   83.7765    9.2442 N.ar    1  UNL1       -0.2296
     40 H          63.3597   83.2392   12.6767 H       1  UNL1        0.1437
     41 H          64.1464   82.2644   11.5196 H       1  UNL1        0.1437
@<TRIPOS>BOND
     1    33    34    1
     2    34    35   ar
     3    35    36   ar
     4    36    32    1
     5    32    26    1
     6    26    27    1
     7    27    28    1
     8    28    29    1
     9    29     1    1
    10     1     2    2
    11     1     3   am
    12     3     4    1
    13     4     5    1
    14     5     6    1
    15     6     9    1
    16     9    10   ar
    17    10    11    2
    18    10    12   ar
    19    12    20    1
    20    20    21   ar
    21    21    22   ar
    22    22    23   ar
    23    23    24   ar
    24    24    25   ar
    25    12    13   ar
    26    13    14   ar
    27    14    15   ar
    28    15    16    1
    29    15    17   ar
    30    17    18   ar
    31    18    19   ar
    32     6     7    1
    33     7     8    1
    34    29    30    1
    35    30    31    1
    36    36    37   ar
    37    37    38   ar
    38    38    39   ar
    39    39    34   ar
    40    31    26    1
    41     8     3    1
    42    19     9   ar
    43    25    20   ar
    44    19    13   ar
    45    33    40    1
    46    33    41    1
@<TRIPOS>MOLECULE
*****
 41 46 0 0 0
SMALL
GASTEIGER

@<TRIPOS>ATOM
      1 C          58.5730   89.9819    6.4001 C.2     1  UNL1        0.2252
      2 O          57.1132   90.1734    6.6867 O.2     1  UNL1       -0.2749
      3 N          59.2209   90.7318    5.2741 N.am    1  UNL1       -0.2794
      4 C          58.4089   91.6733    4.4348 C.3     1  UNL1        0.0953
      5 C          59.0568   92.4233    3.3089 C.3     1  UNL1        0.0442
      6 C          60.5167   92.2317    3.0221 C.3     1  UNL1        0.0933
      7 C          61.3286   91.2902    3.8613 C.3     1  UNL1        0.0442
      8 C          60.6807   90.5403    4.9873 C.3     1  UNL1        0.0953
      9 N          61.1646   92.9817    1.8961 N.ar    1  UNL1       -0.2813
     10 C          62.4546   93.7434    1.9712 C.ar    1  UNL1        0.3376
     11 O          63.3232   93.8890    3.1854 O.2     1  UNL1       -0.2458
     12 N          62.7234   94.3340    0.6188 N.ar    1  UNL1       -0.2278
     13 C          61.5996   93.9373   -0.2920 C.ar    1  UNL1        0.0891
     14 C          61.3291   94.2292   -1.7382 C.ar    1  UNL1        0.0488
     15 C          60.0951   93.6852   -2.3950 C.ar    1  UNL1        0.1417
     16 F          59.8246   93.9770   -3.8413 F       1  UNL1       -0.2041
     17 C          59.1317   92.8494   -1.6056 C.ar    1  UNL1        0.0312
     18 C          59.4022   92.5575   -0.1594 C.ar    1  UNL1        0.0211
     19 C          60.6362   93.1015    0.4974 C.ar    1  UNL1        0.0802
     20 C          63.9081   95.1740    0.2432 C.ar    1  UNL1        0.2404
     21 N          64.3422   95.2602   -1.1901 N.ar    1  UNL1       -0.2094
     22 C          65.5269   96.1002   -1.5657 C.ar    1  UNL1        0.1037
     23 C          66.2775   96.8538   -0.5081 C.ar    1  UNL1        0.0415
     24 C          65.8434   96.7675    0.9251 C.ar    1  UNL1        0.1037
     25 N          64.6587   95.9276    1.3007 N.ar    1  UNL1       -0.2094
     26 N          61.0088   87.1574    8.9178 N.3     1  UNL1       -0.2689
     27 C          60.9781   88.6203    9.2481 C.3     1  UNL1        0.0729
     28 C          60.1661   89.5618    8.4089 C.3     1  UNL1        0.0264
     29 C          59.3849   89.0404    7.2393 C.3     1  UNL1        0.0795
     30 C          59.4157   87.5775    6.9090 C.3     1  UNL1        0.0264
     31 C          60.2276   86.6360    7.7482 C.3     1  UNL1        0.0729
     32 C          61.8208   86.2159    9.7570 C.3     1  UNL1        0.0993
     33 N          63.9702   85.2091   14.3794 N.pl3   1  UNL1       -0.3426
     34 C          63.5268   86.1957   13.3401 C.ar    1  UNL1        0.1251
     35 C          62.8954   85.7125   12.0681 C.ar    1  UNL1        0.0310
     36 C          62.4521   86.6992   11.0289 C.ar    1  UNL1       -0.0018
     37 C          62.6402   88.1690   11.2616 C.ar    1  UNL1        0.0179
     38 C          63.2716   88.6522   12.5335 C.ar    1  UNL1        0.1000
     39 N          63.7149   87.6655   13.5728 N.ar    1  UNL1       -0.2296
     40 H          63.8467   84.2444   14.2267 H       1  UNL1        0.1437
     41 H          64.3846   85.5263   15.2142 H       1  UNL1        0.1437
@<TRIPOS>BOND
     1    33    34    1
     2    34    35   ar
     3    35    36   ar
     4    36    32    1
     5    32    26    1
     6    26    27    1
     7    27    28    1
     8    28    29    1
     9    29     1    1
    10     1     2    2
    11     1     3   am
    12     3     4    1
    13     4     5    1
    14     5     6    1
    15     6     9    1
    16     9    10   ar
    17    10    11    2
    18    10    12   ar
    19    12    20    1
    20    20    21   ar
    21    21    22   ar
    22    22    23   ar
    23    23    24   ar
    24    24    25   ar
    25    12    13   ar
    26    13    14   ar
    27    14    15   ar
    28    15    16    1
    29    15    17   ar
    30    17    18   ar
    31    18    19   ar
    32     6     7    1
    33     7     8    1
    34    29    30    1
    35    30    31    1
    36    36    37   ar
    37    37    38   ar
    38    38    39   ar
    39    39    34   ar
    40    31    26    1
    41     8     3    1
    42    19     9   ar
    43    25    20   ar
    44    19    13   ar
    45    33    40    1
    46    33    41    1
