@<TRIPOS>MOLECULE
*****
 60 62 0 0 0
SMALL
GASTEIGER

@<TRIPOS>ATOM
      1 C          64.1782   86.6793   14.6218 C.3     1  UNL1        0.1486
      2 N          64.1188   84.3818   13.4101 N.am    1  UNL1       -0.2970
      3 C          63.5744   85.7672   13.5953 C.2     1  UNL1        0.2406
      4 O          62.4263   86.2406   12.7540 O.2     1  UNL1       -0.2733
      5 H          64.8723   84.0711   13.9622 H       1  UNL1        0.1499
      6 C          63.5149   83.4697   12.3836 C.3     1  UNL1        0.1488
      7 C          61.1091   85.9399    8.2171 C.3     1  UNL1        0.0765
      8 C          62.3725   85.3418    7.6730 C.3     1  UNL1        0.0412
      9 C          63.2898   84.5747    8.5786 C.3     1  UNL1        0.0951
     10 N          62.9437   84.4058   10.0283 N.am    1  UNL1       -0.2781
     11 C          63.8610   83.6387   10.9339 C.2     1  UNL1        0.2435
     12 O          65.1244   83.0406   10.3898 O.2     1  UNL1       -0.2731
     13 C          61.6803   85.0039   10.5724 C.3     1  UNL1        0.0951
     14 C          60.7630   85.7710    9.6667 C.3     1  UNL1        0.0412
     15 C          58.8277   90.4061    6.8574 C.3     1  UNL1        0.1122
     16 N          59.0511   88.9401    6.6316 N.am    1  UNL1       -0.2872
     17 C          59.9684   88.1730    7.5372 C.2     1  UNL1        0.3008
     18 O          60.6623   88.8719    8.6686 O.2     1  UNL1       -0.2528
     19 N          60.1918   86.7070    7.3114 N.am    1  UNL1       -0.2905
     20 H          58.5956   88.4813    5.8890 H       1  UNL1        0.1510
     21 H          59.7363   86.2483    6.5689 H       1  UNL1        0.1509
     22 C          62.5651   82.3887   12.8069 C.3     1  UNL1        0.0290
     23 C          63.0266   80.9623   12.8574 C.3     1  UNL1        0.0036
     24 C          62.5476   79.9822   11.8279 C.3     1  UNL1        0.0169
     25 C          62.9598   80.1389   10.3942 C.3     1  UNL1        0.0651
     26 N          62.8279   78.9847    9.4454 N.3     1  UNL1       -0.3211
     27 H          63.4655   78.2395    9.7258 H       1  UNL1        0.1189
     28 H          63.0593   79.2927    8.5009 H       1  UNL1        0.1189
     29 N          64.6645   88.0408   14.2219 N.am    1  UNL1       -0.2970
     30 C          63.9859   89.2667   14.7576 C.2     1  UNL1        0.2410
     31 O          62.8212   89.1311   15.6929 O.2     1  UNL1       -0.2733
     32 H          65.4289   88.1298   13.6080 H       1  UNL1        0.1499
     33 C          64.4722   90.6282   14.3577 C.3     1  UNL1        0.1530
     34 N          64.4049   91.0569   12.9218 N.am    1  UNL1       -0.2969
     35 C          63.2836   90.5782   12.0480 C.2     1  UNL1        0.2389
     36 O          62.2297   89.6708   12.6100 O.2     1  UNL1       -0.2736
     37 H          65.0966   91.6524   12.5530 H       1  UNL1        0.1499
     38 C          63.2164   91.0068   10.6121 C.3     1  UNL1        0.1549
     39 N          64.0617   92.1483   10.1298 N.3     1  UNL1       -0.2895
     40 H          63.5806   92.5519    9.3260 H       1  UNL1        0.1237
     41 C          64.3871   93.2836   11.0545 C.3     1  UNL1        0.0733
     42 C          65.8150   93.6893   11.2704 C.3     1  UNL1        0.0381
     43 C          66.2034   94.4338   12.5134 C.3     1  UNL1        0.0061
     44 C          66.8545   93.3505   10.2434 C.ar    1  UNL1       -0.0212
     45 C          67.6002   92.0519   10.3313 C.ar    1  UNL1       -0.0042
     46 C          68.6397   91.7131    9.3043 C.ar    1  UNL1       -0.0003
     47 C          68.9334   92.6728    8.1895 C.ar    1  UNL1       -0.0000
     48 C          68.1876   93.9713    8.1017 C.ar    1  UNL1       -0.0003
     49 C          67.1482   94.3101    9.1287 C.ar    1  UNL1       -0.0042
     50 C          65.0257   91.5611   15.3938 C.3     1  UNL1        0.0553
     51 C          66.4436   92.0397   15.2911 C.ar    1  UNL1       -0.0200
     52 C          67.3406   91.5022   14.2158 C.ar    1  UNL1       -0.0042
     53 C          68.7585   91.9809   14.1132 C.ar    1  UNL1       -0.0003
     54 C          69.2793   92.9970   15.0858 C.ar    1  UNL1       -0.0000
     55 C          68.3823   93.5346   16.1612 C.ar    1  UNL1       -0.0003
     56 C          66.9644   93.0559   16.2639 C.ar    1  UNL1       -0.0042
     57 C          64.2958   86.2298   16.0480 C.3     1  UNL1        0.0290
     58 C          63.0659   85.8514   16.8188 C.3     1  UNL1        0.0021
     59 C          62.7189   86.5808   18.0828 C.3     1  UNL1        0.0001
     60 C          62.1830   84.7435   16.3257 C.3     1  UNL1        0.0001
@<TRIPOS>BOND
     1    15    16    1
     2    16    17   am
     3    17    18    2
     4    17    19   am
     5    19     7    1
     6     7     8    1
     7     8     9    1
     8     9    10    1
     9    10    11   am
    10    11    12    2
    11    11     6    1
    12     6    22    1
    13    22    23    1
    14    23    24    1
    15    24    25    1
    16    25    26    1
    17     6     2    1
    18     2     3   am
    19     3     4    2
    20     3     1    1
    21     1    57    1
    22    57    58    1
    23    58    59    1
    24    58    60    1
    25     1    29    1
    26    29    30   am
    27    30    31    2
    28    30    33    1
    29    33    50    1
    30    50    51    1
    31    51    52   ar
    32    52    53   ar
    33    53    54   ar
    34    54    55   ar
    35    55    56   ar
    36    33    34    1
    37    34    35   am
    38    35    36    2
    39    35    38    1
    40    38    39    1
    41    39    41    1
    42    41    42    1
    43    42    43    1
    44    42    44    1
    45    44    45   ar
    46    45    46   ar
    47    46    47   ar
    48    47    48   ar
    49    48    49   ar
    50    10    13    1
    51    13    14    1
    52    14     7    1
    53    56    51   ar
    54    49    44   ar
    55    16    20    1
    56    19    21    1
    57    26    27    1
    58    26    28    1
    59     2     5    1
    60    29    32    1
    61    34    37    1
    62    39    40    1
@<TRIPOS>MOLECULE
*****
 60 62 0 0 0
SMALL
GASTEIGER

@<TRIPOS>ATOM
      1 C          64.0178   86.2343   15.2857 C.3     1  UNL1        0.1486
      2 N          64.5500   84.3959   13.5287 N.am    1  UNL1       -0.2970
      3 C          63.5527   85.1585   14.3495 C.2     1  UNL1        0.2406
      4 O          62.0903   84.8454   14.2343 O.2     1  UNL1       -0.2733
      5 H          65.5098   84.6014   13.6044 H       1  UNL1        0.1499
      6 C          64.0849   83.3200   12.5926 C.3     1  UNL1        0.1488
      7 C          61.8059   87.2572    9.6677 C.3     1  UNL1        0.0765
      8 C          62.4307   86.3150    8.6819 C.3     1  UNL1        0.0412
      9 C          63.1566   85.0952    9.1667 C.3     1  UNL1        0.0951
     10 N          63.2578   84.8175   10.6372 N.am    1  UNL1       -0.2781
     11 C          63.9837   83.5977   11.1220 C.2     1  UNL1        0.2435
     12 O          64.6085   82.6555   10.1362 O.2     1  UNL1       -0.2731
     13 C          62.6330   85.7597   11.6230 C.3     1  UNL1        0.0951
     14 C          61.9071   86.9796   11.1383 C.3     1  UNL1        0.0412
     15 C          58.4848   89.4998    6.3599 C.3     1  UNL1        0.1122
     16 N          59.4195   89.5984    7.5291 N.am    1  UNL1       -0.2872
     17 C          60.1454   88.3786    8.0138 C.2     1  UNL1        0.3008
     18 O          59.9367   87.0602    7.3294 O.2     1  UNL1       -0.2528
     19 N          61.0800   88.4771    9.1829 N.am    1  UNL1       -0.2905
     20 H          59.5564   90.4637    7.9782 H       1  UNL1        0.1510
     21 H          61.2169   89.3424    9.6321 H       1  UNL1        0.1509
     22 C          63.7209   81.9666   13.1271 C.3     1  UNL1        0.0290
     23 C          62.3704   81.3830   12.8344 C.3     1  UNL1        0.0036
     24 C          61.3120   81.3715   13.8973 C.3     1  UNL1        0.0169
     25 C          60.5247   80.1217   14.1582 C.3     1  UNL1        0.0651
     26 N          59.0716   80.2124   14.5193 N.3     1  UNL1       -0.3211
     27 H          58.9746   80.6678   15.4269 H       1  UNL1        0.1189
     28 H          58.6735   79.2744   14.5654 H       1  UNL1        0.1189
     29 N          64.5399   87.5300   14.7391 N.am    1  UNL1       -0.2970
     30 C          63.8605   88.8203   15.0906 C.2     1  UNL1        0.2410
     31 O          62.6591   88.8150   15.9886 O.2     1  UNL1       -0.2733
     32 H          65.3285   87.5334   14.1497 H       1  UNL1        0.1499
     33 C          64.3826   90.1159   14.5440 C.3     1  UNL1        0.1530
     34 N          64.4292   90.3400   13.0615 N.am    1  UNL1       -0.2969
     35 C          63.1574   90.3669   12.2667 C.2     1  UNL1        0.2389
     36 O          61.8390   90.1697   12.9543 O.2     1  UNL1       -0.2736
     37 H          65.2946   90.4695   12.6102 H       1  UNL1        0.1499
     38 C          63.2041   90.5909   10.7843 C.3     1  UNL1        0.1549
     39 N          63.9615   91.7591   10.2258 N.3     1  UNL1       -0.2895
     40 H          63.4147   92.5935   10.4386 H       1  UNL1        0.1237
     41 C          65.3636   92.0319   10.6834 C.3     1  UNL1        0.0733
     42 C          65.7505   93.4088   11.1354 C.3     1  UNL1        0.0381
     43 C          65.8421   93.7193   12.6001 C.3     1  UNL1        0.0061
     44 C          66.0458   94.4753   10.1228 C.ar    1  UNL1       -0.0212
     45 C          65.3253   95.7895   10.1858 C.ar    1  UNL1       -0.0042
     46 C          65.6206   96.8560    9.1732 C.ar    1  UNL1       -0.0003
     47 C          66.6364   96.6083    8.0976 C.ar    1  UNL1       -0.0000
     48 C          67.3568   95.2942    8.0346 C.ar    1  UNL1       -0.0003
     49 C          67.0615   94.2277    9.0472 C.ar    1  UNL1       -0.0042
     50 C          64.8581   91.1875   15.4798 C.3     1  UNL1        0.0553
     51 C          66.2403   91.7515   15.3338 C.ar    1  UNL1       -0.0200
     52 C          66.6964   92.8613   16.2340 C.ar    1  UNL1       -0.0042
     53 C          68.0786   93.4253   16.0881 C.ar    1  UNL1       -0.0003
     54 C          69.0048   92.8795   15.0420 C.ar    1  UNL1       -0.0000
     55 C          68.5487   91.7697   14.1418 C.ar    1  UNL1       -0.0003
     56 C          67.1665   91.2056   14.2877 C.ar    1  UNL1       -0.0042
     57 C          63.9609   86.0145   16.7684 C.3     1  UNL1        0.0290
     58 C          62.7052   86.3304   17.5257 C.3     1  UNL1        0.0021
     59 C          62.7859   86.9969   18.8671 C.3     1  UNL1        0.0001
     60 C          61.3688   85.9799   16.9416 C.3     1  UNL1        0.0001
@<TRIPOS>BOND
     1    15    16    1
     2    16    17   am
     3    17    18    2
     4    17    19   am
     5    19     7    1
     6     7     8    1
     7     8     9    1
     8     9    10    1
     9    10    11   am
    10    11    12    2
    11    11     6    1
    12     6    22    1
    13    22    23    1
    14    23    24    1
    15    24    25    1
    16    25    26    1
    17     6     2    1
    18     2     3   am
    19     3     4    2
    20     3     1    1
    21     1    57    1
    22    57    58    1
    23    58    59    1
    24    58    60    1
    25     1    29    1
    26    29    30   am
    27    30    31    2
    28    30    33    1
    29    33    50    1
    30    50    51    1
    31    51    52   ar
    32    52    53   ar
    33    53    54   ar
    34    54    55   ar
    35    55    56   ar
    36    33    34    1
    37    34    35   am
    38    35    36    2
    39    35    38    1
    40    38    39    1
    41    39    41    1
    42    41    42    1
    43    42    43    1
    44    42    44    1
    45    44    45   ar
    46    45    46   ar
    47    46    47   ar
    48    47    48   ar
    49    48    49   ar
    50    10    13    1
    51    13    14    1
    52    14     7    1
    53    56    51   ar
    54    49    44   ar
    55    16    20    1
    56    19    21    1
    57    26    27    1
    58    26    28    1
    59     2     5    1
    60    29    32    1
    61    34    37    1
    62    39    40    1
@<TRIPOS>MOLECULE
*****
 60 62 0 0 0
SMALL
GASTEIGER

@<TRIPOS>ATOM
      1 C          62.7320   85.5025    8.7720 C.3     1  UNL1        0.1486
      2 N          63.5713   83.4028   10.0514 N.am    1  UNL1       -0.2970
      3 C          62.6790   84.6059    9.9735 C.2     1  UNL1        0.2406
      4 O          61.7336   84.9125   11.0969 O.2     1  UNL1       -0.2733
      5 H          64.1918   83.2015    9.3140 H       1  UNL1        0.1499
      6 C          63.5183   82.5062   11.2528 C.3     1  UNL1        0.1488
      7 C          63.5783   85.9637   15.4111 C.3     1  UNL1        0.0765
      8 C          64.8076   85.1167   15.5566 C.3     1  UNL1        0.0412
      9 C          65.0999   84.0405   14.5534 C.3     1  UNL1        0.0951
     10 N          64.1630   83.8114   13.4047 N.am    1  UNL1       -0.2781
     11 C          64.4553   82.7352   12.4015 C.2     1  UNL1        0.2435
     12 O          65.6846   81.8882   12.5470 O.2     1  UNL1       -0.2731
     13 C          62.9337   84.6585   13.2592 C.3     1  UNL1        0.0951
     14 C          62.6413   85.7347   14.2624 C.3     1  UNL1        0.0412
     15 C          63.6008   90.9805   16.7645 C.3     1  UNL1        0.1122
     16 N          63.2972   89.5483   17.0910 N.am    1  UNL1       -0.2872
     17 C          63.5895   88.4721   16.0878 C.2     1  UNL1        0.3008
     18 O          64.1855   88.8282   14.7581 O.2     1  UNL1       -0.2528
     19 N          63.2860   87.0399   16.4143 N.am    1  UNL1       -0.2905
     20 H          62.9061   89.3146   17.9638 H       1  UNL1        0.1510
     21 H          62.8949   86.8062   17.2871 H       1  UNL1        0.1509
     22 C          62.5283   81.3805   11.3055 C.3     1  UNL1        0.0290
     23 C          62.7672   80.2136   12.2173 C.3     1  UNL1        0.0036
     24 C          62.4548   80.3284   13.6799 C.3     1  UNL1        0.0169
     25 C          61.3155   81.1898   14.1381 C.3     1  UNL1        0.0651
     26 N          59.9466   80.5987   14.3010 N.3     1  UNL1       -0.3211
     27 H          59.5888   80.3132   13.3895 H       1  UNL1        0.1189
     28 H          59.3221   81.2945   14.7086 H       1  UNL1        0.1189
     29 N          62.4679   86.9716    8.9203 N.am    1  UNL1       -0.2970
     30 C          61.0735   87.4608    9.1779 C.2     1  UNL1        0.2410
     31 O          59.9431   86.4808    9.2870 O.2     1  UNL1       -0.2733
     32 H          63.2099   87.6148    8.8487 H       1  UNL1        0.1499
     33 C          60.8094   88.9299    9.3262 C.3     1  UNL1        0.1530
     34 N          60.4492   89.7522    8.1245 N.am    1  UNL1       -0.2969
     35 C          59.3754   89.2823    7.1886 C.2     1  UNL1        0.2389
     36 O          58.6616   87.9901    7.4544 O.2     1  UNL1       -0.2736
     37 H          60.9177   90.6004    7.9500 H       1  UNL1        0.1499
     38 C          59.0152   90.1047    5.9869 C.3     1  UNL1        0.1549
     39 N          60.0275   91.0315    5.3816 N.3     1  UNL1       -0.2895
     40 H          60.7298   90.4459    4.9297 H       1  UNL1        0.1237
     41 C          59.5989   92.0526    4.3699 C.3     1  UNL1        0.0733
     42 C          60.5437   92.4751    3.2842 C.3     1  UNL1        0.0381
     43 C          61.9480   91.9479    3.2648 C.3     1  UNL1        0.0061
     44 C          60.0844   93.4247    2.2177 C.ar    1  UNL1       -0.0212
     45 C          60.4587   94.8753    2.2934 C.ar    1  UNL1       -0.0042
     46 C          59.9993   95.8249    1.2270 C.ar    1  UNL1       -0.0003
     47 C          59.1657   95.3239    0.0849 C.ar    1  UNL1       -0.0000
     48 C          58.7915   93.8733    0.0093 C.ar    1  UNL1       -0.0003
     49 C          59.2509   92.9237    1.0758 C.ar    1  UNL1       -0.0042
     50 C          60.9056   89.5766   10.6761 C.3     1  UNL1        0.0553
     51 C          62.1374   90.3448   11.0537 C.ar    1  UNL1       -0.0200
     52 C          62.9204   91.0713   10.0007 C.ar    1  UNL1       -0.0042
     53 C          64.1522   91.8395   10.3783 C.ar    1  UNL1       -0.0003
     54 C          64.6010   91.8812   11.8089 C.ar    1  UNL1       -0.0000
     55 C          63.8179   91.1547   12.8621 C.ar    1  UNL1       -0.0003
     56 C          62.5861   90.3865   12.4845 C.ar    1  UNL1       -0.0042
     57 C          63.0490   84.9300    7.4224 C.3     1  UNL1        0.0290
     58 C          61.9466   84.6777    6.4370 C.3     1  UNL1        0.0021
     59 C          60.5218   84.9483    6.8200 C.3     1  UNL1        0.0001
     60 C          62.2690   84.1547    5.0685 C.3     1  UNL1        0.0001
@<TRIPOS>BOND
     1    15    16    1
     2    16    17   am
     3    17    18    2
     4    17    19   am
     5    19     7    1
     6     7     8    1
     7     8     9    1
     8     9    10    1
     9    10    11   am
    10    11    12    2
    11    11     6    1
    12     6    22    1
    13    22    23    1
    14    23    24    1
    15    24    25    1
    16    25    26    1
    17     6     2    1
    18     2     3   am
    19     3     4    2
    20     3     1    1
    21     1    57    1
    22    57    58    1
    23    58    59    1
    24    58    60    1
    25     1    29    1
    26    29    30   am
    27    30    31    2
    28    30    33    1
    29    33    50    1
    30    50    51    1
    31    51    52   ar
    32    52    53   ar
    33    53    54   ar
    34    54    55   ar
    35    55    56   ar
    36    33    34    1
    37    34    35   am
    38    35    36    2
    39    35    38    1
    40    38    39    1
    41    39    41    1
    42    41    42    1
    43    42    43    1
    44    42    44    1
    45    44    45   ar
    46    45    46   ar
    47    46    47   ar
    48    47    48   ar
    49    48    49   ar
    50    10    13    1
    51    13    14    1
    52    14     7    1
    53    56    51   ar
    54    49    44   ar
    55    16    20    1
    56    19    21    1
    57    26    27    1
    58    26    28    1
    59     2     5    1
    60    29    32    1
    61    34    37    1
    62    39    40    1
@<TRIPOS>MOLECULE
*****
 60 62 0 0 0
SMALL
GASTEIGER

@<TRIPOS>ATOM
      1 C          62.5700   85.4861    9.4721 C.3     1  UNL1        0.1486
      2 N          60.9516   87.3809   10.2072 N.am    1  UNL1       -0.2970
      3 C          62.2222   86.9436    9.5407 C.2     1  UNL1        0.2406
      4 O          63.1450   87.9638    8.9426 O.2     1  UNL1       -0.2733
      5 H          60.3459   86.7114   10.5997 H       1  UNL1        0.1499
      6 C          60.6038   88.8385   10.2758 C.3     1  UNL1        0.1488
      7 C          64.7926   92.1226   11.2339 C.3     1  UNL1        0.0765
      8 C          63.9705   92.1201   12.4885 C.3     1  UNL1        0.0412
      9 C          62.7177   91.2984   12.5626 C.3     1  UNL1        0.0951
     10 N          62.2871   90.4793   11.3821 N.am    1  UNL1       -0.2781
     11 C          61.0344   89.6576   11.4562 C.2     1  UNL1        0.2435
     12 O          60.2122   89.6551   12.7108 O.2     1  UNL1       -0.2731
     13 C          63.1093   90.4818   10.1275 C.3     1  UNL1        0.0951
     14 C          64.3620   91.3035   10.0534 C.3     1  UNL1        0.0412
     15 C          67.2157   96.5237    9.9075 C.3     1  UNL1        0.1122
     16 N          67.2570   95.1447   10.4966 N.am    1  UNL1       -0.2872
     17 C          66.0042   94.3231   10.5707 C.2     1  UNL1        0.3008
     18 O          64.7102   94.8804   10.0557 O.2     1  UNL1       -0.2528
     19 N          66.0454   92.9442   11.1598 N.am    1  UNL1       -0.2905
     20 H          68.1062   94.7790   10.8346 H       1  UNL1        0.1510
     21 H          66.8947   92.5785   11.4978 H       1  UNL1        0.1509
     22 C          59.8253   89.4769    9.1638 C.3     1  UNL1        0.0290
     23 C          59.9178   88.9265    7.7714 C.3     1  UNL1        0.0036
     24 C          58.9976   89.4347    6.7014 C.3     1  UNL1        0.0169
     25 C          59.5097   90.3871    5.6619 C.3     1  UNL1        0.0651
     26 N          58.8851   91.7428    5.5140 N.3     1  UNL1       -0.3211
     27 H          57.9225   91.6404    5.1923 H       1  UNL1        0.1189
     28 H          59.4145   92.2887    4.8342 H       1  UNL1        0.1189
     29 N          62.7529   84.6985   10.7356 N.am    1  UNL1       -0.2970
     30 C          63.0219   85.4081   12.0295 C.2     1  UNL1        0.2410
     31 O          63.1081   86.9053   12.0599 O.2     1  UNL1       -0.2733
     32 H          62.6963   83.7158   10.7156 H       1  UNL1        0.1499
     33 C          63.2048   84.6205   13.2929 C.3     1  UNL1        0.1530
     34 N          62.7535   85.1915   14.6046 N.am    1  UNL1       -0.2969
     35 C          63.7563   85.7857   15.5486 C.2     1  UNL1        0.2389
     36 O          65.2104   85.8090   15.1810 O.2     1  UNL1       -0.2736
     37 H          61.7992   85.1762   14.8458 H       1  UNL1        0.1499
     38 C          63.3051   86.3567   16.8602 C.3     1  UNL1        0.1549
     39 N          62.4843   87.6119   16.8891 N.3     1  UNL1       -0.2895
     40 H          61.9429   87.5899   17.7533 H       1  UNL1        0.1237
     41 C          63.1589   88.9505   16.8349 C.3     1  UNL1        0.0733
     42 C          63.7801   89.4260   15.5550 C.3     1  UNL1        0.0381
     43 C          63.4290   88.7593   14.2579 C.3     1  UNL1        0.0061
     44 C          64.7523   90.5681   15.5721 C.ar    1  UNL1       -0.0212
     45 C          65.9474   90.5493   14.6658 C.ar    1  UNL1       -0.0042
     46 C          66.9197   91.6914   14.6829 C.ar    1  UNL1       -0.0003
     47 C          66.6969   92.8523   15.6064 C.ar    1  UNL1       -0.0000
     48 C          65.5018   92.8710   16.5127 C.ar    1  UNL1       -0.0003
     49 C          64.5295   91.7289   16.4956 C.ar    1  UNL1       -0.0042
     50 C          63.8389   83.2620   13.2447 C.3     1  UNL1        0.0553
     51 C          62.9855   82.0322   13.3414 C.ar    1  UNL1       -0.0200
     52 C          63.3706   80.7913   12.5919 C.ar    1  UNL1       -0.0042
     53 C          62.5173   79.5615   12.6886 C.ar    1  UNL1       -0.0003
     54 C          61.2789   79.5725   13.5349 C.ar    1  UNL1       -0.0000
     55 C          60.8938   80.8135   14.2845 C.ar    1  UNL1       -0.0003
     56 C          61.7471   82.0433   14.1877 C.ar    1  UNL1       -0.0042
     57 C          62.7350   84.8162    8.1402 C.3     1  UNL1        0.0290
     58 C          61.6481   84.9152    7.1113 C.3     1  UNL1        0.0021
     59 C          60.3450   85.5727    7.4575 C.3     1  UNL1        0.0001
     60 C          61.8642   84.3568    5.7360 C.3     1  UNL1        0.0001
@<TRIPOS>BOND
     1    15    16    1
     2    16    17   am
     3    17    18    2
     4    17    19   am
     5    19     7    1
     6     7     8    1
     7     8     9    1
     8     9    10    1
     9    10    11   am
    10    11    12    2
    11    11     6    1
    12     6    22    1
    13    22    23    1
    14    23    24    1
    15    24    25    1
    16    25    26    1
    17     6     2    1
    18     2     3   am
    19     3     4    2
    20     3     1    1
    21     1    57    1
    22    57    58    1
    23    58    59    1
    24    58    60    1
    25     1    29    1
    26    29    30   am
    27    30    31    2
    28    30    33    1
    29    33    50    1
    30    50    51    1
    31    51    52   ar
    32    52    53   ar
    33    53    54   ar
    34    54    55   ar
    35    55    56   ar
    36    33    34    1
    37    34    35   am
    38    35    36    2
    39    35    38    1
    40    38    39    1
    41    39    41    1
    42    41    42    1
    43    42    43    1
    44    42    44    1
    45    44    45   ar
    46    45    46   ar
    47    46    47   ar
    48    47    48   ar
    49    48    49   ar
    50    10    13    1
    51    13    14    1
    52    14     7    1
    53    56    51   ar
    54    49    44   ar
    55    16    20    1
    56    19    21    1
    57    26    27    1
    58    26    28    1
    59     2     5    1
    60    29    32    1
    61    34    37    1
    62    39    40    1
@<TRIPOS>MOLECULE
*****
 60 62 0 0 0
SMALL
GASTEIGER

@<TRIPOS>ATOM
      1 C          59.3045   90.8376    5.5553 C.3     1  UNL1        0.1486
      2 N          60.7653   91.5511    3.5288 N.am    1  UNL1       -0.2970
      3 C          59.8164   91.9058    4.6349 C.2     1  UNL1        0.2406
      4 O          59.3792   93.3286    4.8206 O.2     1  UNL1       -0.2733
      5 H          61.0522   90.6172    3.4068 H       1  UNL1        0.1499
      6 C          61.2772   92.6192    2.6083 C.3     1  UNL1        0.1488
      7 C          64.2842   95.5242   -0.8223 C.3     1  UNL1        0.0765
      8 C          65.2506   94.7925    0.0611 C.3     1  UNL1        0.0412
      9 C          64.7405   93.8834    1.1396 C.3     1  UNL1        0.0951
     10 N          63.2639   93.7059    1.3347 N.am    1  UNL1       -0.2781
     11 C          62.7538   92.7967    2.4132 C.2     1  UNL1        0.2435
     12 O          63.7203   92.0651    3.2967 O.2     1  UNL1       -0.2731
     13 C          62.2975   94.4375    0.4513 C.3     1  UNL1        0.0951
     14 C          62.8076   95.3467   -0.6273 C.3     1  UNL1        0.0412
     15 C          65.6091   96.3201   -5.7833 C.3     1  UNL1        0.1122
     16 N          65.4568   96.8313   -4.3813 N.am    1  UNL1       -0.2872
     17 C          64.9467   95.9222   -3.3028 C.2     1  UNL1        0.3008
     18 O          64.5889   94.5018   -3.6262 O.2     1  UNL1       -0.2528
     19 N          64.7943   96.4333   -1.9009 N.am    1  UNL1       -0.2905
     20 H          65.6916   97.7636   -4.1691 H       1  UNL1        0.1510
     21 H          65.0291   97.3656   -1.6886 H       1  UNL1        0.1509
     22 C          60.3125   93.5098    1.8830 C.3     1  UNL1        0.0290
     23 C          59.3641   92.9268    0.8776 C.3     1  UNL1        0.0036
     24 C          58.5892   93.8308   -0.0347 C.3     1  UNL1        0.0169
     25 C          57.4875   93.2722   -0.8857 C.3     1  UNL1        0.0651
     26 N          57.2034   91.7994   -0.8731 N.3     1  UNL1       -0.3211
     27 H          57.9973   91.2966   -1.2699 H       1  UNL1        0.1189
     28 H          56.3689   91.6094   -1.4279 H       1  UNL1        0.1189
     29 N          60.0537   90.5087    6.8125 N.am    1  UNL1       -0.2970
     30 C          59.7664   89.2311    7.5442 C.2     1  UNL1        0.2410
     31 O          58.7299   88.2826    7.0189 O.2     1  UNL1       -0.2733
     32 H          60.7340   91.1312    7.1573 H       1  UNL1        0.1499
     33 C          60.5156   88.9021    8.8014 C.3     1  UNL1        0.1530
     34 N          61.6176   89.8028    9.2752 N.am    1  UNL1       -0.2969
     35 C          61.6054   90.3277   10.6803 C.2     1  UNL1        0.2389
     36 O          60.4912   89.9520   11.6116 O.2     1  UNL1       -0.2736
     37 H          62.3489   90.0494    8.6640 H       1  UNL1        0.1499
     38 C          62.7073   91.2283   11.1540 C.3     1  UNL1        0.1549
     39 N          63.1799   91.1516   12.5757 N.3     1  UNL1       -0.2895
     40 H          62.4224   91.5097   13.1574 H       1  UNL1        0.1237
     41 C          63.5879   89.8318   13.1601 C.3     1  UNL1        0.0733
     42 C          64.0101   89.7462   14.5969 C.3     1  UNL1        0.0381
     43 C          64.6362   90.9335   15.2666 C.3     1  UNL1        0.0061
     44 C          63.8061   88.4735   15.3641 C.ar    1  UNL1       -0.0212
     45 C          63.1356   88.5056   16.7055 C.ar    1  UNL1       -0.0042
     46 C          62.9317   87.2328   17.4726 C.ar    1  UNL1       -0.0003
     47 C          63.3983   85.9280   16.8983 C.ar    1  UNL1       -0.0000
     48 C          64.0689   85.8960   15.5570 C.ar    1  UNL1       -0.0003
     49 C          64.2728   87.1687   14.7898 C.ar    1  UNL1       -0.0042
     50 C          60.1629   87.6725    9.5847 C.3     1  UNL1        0.0553
     51 C          61.1892   86.5997    9.7989 C.ar    1  UNL1       -0.0200
     52 C          61.9952   86.0908    8.6408 C.ar    1  UNL1       -0.0042
     53 C          63.0214   85.0180    8.8551 C.ar    1  UNL1       -0.0003
     54 C          63.2416   84.4541   10.2275 C.ar    1  UNL1       -0.0000
     55 C          62.4356   84.9630   11.3857 C.ar    1  UNL1       -0.0003
     56 C          61.4093   86.0358   11.1714 C.ar    1  UNL1       -0.0042
     57 C          58.0434   90.0986    5.2186 C.3     1  UNL1        0.0290
     58 C          56.7254   90.8143    5.2430 C.3     1  UNL1        0.0021
     59 C          56.5422   92.0758    4.4523 C.3     1  UNL1        0.0001
     60 C          55.5906   90.2686    6.0581 C.3     1  UNL1        0.0001
@<TRIPOS>BOND
     1    15    16    1
     2    16    17   am
     3    17    18    2
     4    17    19   am
     5    19     7    1
     6     7     8    1
     7     8     9    1
     8     9    10    1
     9    10    11   am
    10    11    12    2
    11    11     6    1
    12     6    22    1
    13    22    23    1
    14    23    24    1
    15    24    25    1
    16    25    26    1
    17     6     2    1
    18     2     3   am
    19     3     4    2
    20     3     1    1
    21     1    57    1
    22    57    58    1
    23    58    59    1
    24    58    60    1
    25     1    29    1
    26    29    30   am
    27    30    31    2
    28    30    33    1
    29    33    50    1
    30    50    51    1
    31    51    52   ar
    32    52    53   ar
    33    53    54   ar
    34    54    55   ar
    35    55    56   ar
    36    33    34    1
    37    34    35   am
    38    35    36    2
    39    35    38    1
    40    38    39    1
    41    39    41    1
    42    41    42    1
    43    42    43    1
    44    42    44    1
    45    44    45   ar
    46    45    46   ar
    47    46    47   ar
    48    47    48   ar
    49    48    49   ar
    50    10    13    1
    51    13    14    1
    52    14     7    1
    53    56    51   ar
    54    49    44   ar
    55    16    20    1
    56    19    21    1
    57    26    27    1
    58    26    28    1
    59     2     5    1
    60    29    32    1
    61    34    37    1
    62    39    40    1
@<TRIPOS>MOLECULE
*****
 60 62 0 0 0
SMALL
GASTEIGER

@<TRIPOS>ATOM
      1 C          59.2621   90.7400    5.5338 C.3     1  UNL1        0.1486
      2 N          60.7616   91.4912    3.5496 N.am    1  UNL1       -0.2970
      3 C          59.7927   91.8254    4.6447 C.2     1  UNL1        0.2406
      4 O          59.3542   93.2450    4.8508 O.2     1  UNL1       -0.2733
      5 H          61.0493   90.5595    3.4143 H       1  UNL1        0.1499
      6 C          61.2922   92.5766    2.6604 C.3     1  UNL1        0.1488
      7 C          64.3651   95.5046   -0.6912 C.3     1  UNL1        0.0765
      8 C          65.3144   94.7625    0.2021 C.3     1  UNL1        0.0412
      9 C          64.7835   93.8449    1.2633 C.3     1  UNL1        0.0951
     10 N          63.3033   93.6695    1.4313 N.am    1  UNL1       -0.2781
     11 C          62.7724   92.7520    2.4925 C.2     1  UNL1        0.2435
     12 O          63.7216   92.0098    3.3858 O.2     1  UNL1       -0.2731
     13 C          62.3540   94.4117    0.5380 C.3     1  UNL1        0.0951
     14 C          62.8849   95.3292   -0.5233 C.3     1  UNL1        0.0412
     15 C          65.7067   96.3646   -5.6370 C.3     1  UNL1        0.1122
     16 N          65.5668   96.8522   -4.2253 N.am    1  UNL1       -0.2872
     17 C          65.0359   95.9346   -3.1641 C.2     1  UNL1        0.3008
     18 O          64.6448   94.5295   -3.5145 O.2     1  UNL1       -0.2528
     19 N          64.8960   96.4222   -1.7525 N.am    1  UNL1       -0.2905
     20 H          65.8235   97.7744   -3.9954 H       1  UNL1        0.1510
     21 H          65.1527   97.3444   -1.5225 H       1  UNL1        0.1509
     22 C          60.3425   93.4866    1.9393 C.3     1  UNL1        0.0290
     23 C          59.1841   92.9116    1.1793 C.3     1  UNL1        0.0036
     24 C          59.3474   92.5318   -0.2626 C.3     1  UNL1        0.0169
     25 C          58.2055   92.7091   -1.2189 C.3     1  UNL1        0.0651
     26 N          56.9397   91.9270   -1.0288 N.3     1  UNL1       -0.3211
     27 H          57.1286   90.9347   -1.1706 H       1  UNL1        0.1189
     28 H          56.2420   92.2401   -1.7037 H       1  UNL1        0.1189
     29 N          60.0383   90.3167    6.7456 N.am    1  UNL1       -0.2970
     30 C          59.6017   89.1183    7.5350 C.2     1  UNL1        0.2410
     31 O          58.3889   88.3432    7.1127 O.2     1  UNL1       -0.2733
     32 H          60.8343   90.8255    7.0228 H       1  UNL1        0.1499
     33 C          60.3779   88.6950    8.7468 C.3     1  UNL1        0.1530
     34 N          61.4286   89.6002    9.3183 N.am    1  UNL1       -0.2969
     35 C          61.2229   90.2330   10.6626 C.2     1  UNL1        0.2389
     36 O          59.9665   89.9606   11.4354 O.2     1  UNL1       -0.2736
     37 H          62.2532   89.7790    8.8111 H       1  UNL1        0.1499
     38 C          62.2736   91.1382   11.2341 C.3     1  UNL1        0.1549
     39 N          63.4554   90.5562   11.9516 N.3     1  UNL1       -0.2895
     40 H          64.0458   90.1217   11.2423 H       1  UNL1        0.1237
     41 C          64.3453   91.4419   12.7723 C.3     1  UNL1        0.0733
     42 C          65.0977   90.8747   13.9393 C.3     1  UNL1        0.0381
     43 C          64.6562   89.5822   14.5597 C.3     1  UNL1        0.0061
     44 C          66.2916   91.5998   14.4860 C.ar    1  UNL1       -0.0212
     45 C          67.5859   91.5919   13.7278 C.ar    1  UNL1       -0.0042
     46 C          68.7797   92.3170   14.2745 C.ar    1  UNL1       -0.0003
     47 C          68.6793   93.0500   15.5794 C.ar    1  UNL1       -0.0000
     48 C          67.3851   93.0578   16.3376 C.ar    1  UNL1       -0.0003
     49 C          66.1912   92.3327   15.7909 C.ar    1  UNL1       -0.0042
     50 C          60.1034   87.3665    9.3869 C.3     1  UNL1        0.0553
     51 C          61.2137   86.3724    9.5574 C.ar    1  UNL1       -0.0200
     52 C          61.5391   85.8380   10.9206 C.ar    1  UNL1       -0.0042
     53 C          62.6494   84.8439   11.0911 C.ar    1  UNL1       -0.0003
     54 C          63.4342   84.3842    9.8983 C.ar    1  UNL1       -0.0000
     55 C          63.1087   84.9186    8.5350 C.ar    1  UNL1       -0.0003
     56 C          61.9984   85.9127    8.3645 C.ar    1  UNL1       -0.0042
     57 C          57.9554   90.0780    5.2112 C.3     1  UNL1        0.0290
     58 C          56.6822   90.8697    5.2563 C.3     1  UNL1        0.0021
     59 C          56.5869   92.1788    4.5300 C.3     1  UNL1        0.0001
     60 C          55.5043   90.3526    6.0277 C.3     1  UNL1        0.0001
@<TRIPOS>BOND
     1    15    16    1
     2    16    17   am
     3    17    18    2
     4    17    19   am
     5    19     7    1
     6     7     8    1
     7     8     9    1
     8     9    10    1
     9    10    11   am
    10    11    12    2
    11    11     6    1
    12     6    22    1
    13    22    23    1
    14    23    24    1
    15    24    25    1
    16    25    26    1
    17     6     2    1
    18     2     3   am
    19     3     4    2
    20     3     1    1
    21     1    57    1
    22    57    58    1
    23    58    59    1
    24    58    60    1
    25     1    29    1
    26    29    30   am
    27    30    31    2
    28    30    33    1
    29    33    50    1
    30    50    51    1
    31    51    52   ar
    32    52    53   ar
    33    53    54   ar
    34    54    55   ar
    35    55    56   ar
    36    33    34    1
    37    34    35   am
    38    35    36    2
    39    35    38    1
    40    38    39    1
    41    39    41    1
    42    41    42    1
    43    42    43    1
    44    42    44    1
    45    44    45   ar
    46    45    46   ar
    47    46    47   ar
    48    47    48   ar
    49    48    49   ar
    50    10    13    1
    51    13    14    1
    52    14     7    1
    53    56    51   ar
    54    49    44   ar
    55    16    20    1
    56    19    21    1
    57    26    27    1
    58    26    28    1
    59     2     5    1
    60    29    32    1
    61    34    37    1
    62    39    40    1
@<TRIPOS>MOLECULE
*****
 60 62 0 0 0
SMALL
GASTEIGER

@<TRIPOS>ATOM
      1 C          62.5510   85.6879    9.2563 C.3     1  UNL1        0.1486
      2 N          63.2641   83.7999   10.8926 N.am    1  UNL1       -0.2970
      3 C          62.3770   84.9622   10.5576 C.2     1  UNL1        0.2406
      4 O          61.3161   85.3989   11.5239 O.2     1  UNL1       -0.2733
      5 H          63.9604   83.5133   10.2584 H       1  UNL1        0.1499
      6 C          63.0901   83.0743   12.1939 C.3     1  UNL1        0.1488
      7 C          64.5812   87.7301   14.5070 C.3     1  UNL1        0.0765
      8 C          65.2396   86.6413   15.3014 C.3     1  UNL1        0.0412
      9 C          65.0314   85.2051   14.9217 C.3     1  UNL1        0.0951
     10 N          64.1649   84.8578   13.7477 N.am    1  UNL1       -0.2781
     11 C          63.9567   83.4216   13.3680 C.2     1  UNL1        0.2435
     12 O          64.6150   82.3328   14.1623 O.2     1  UNL1       -0.2731
     13 C          63.5065   85.9466   12.9533 C.3     1  UNL1        0.0951
     14 C          63.7147   87.3827   13.3330 C.3     1  UNL1        0.0412
     15 C          62.9618   92.0176   16.9554 C.3     1  UNL1        0.1122
     16 N          63.9798   91.3100   16.1109 N.am    1  UNL1       -0.2872
     17 C          63.7716   89.8738   15.7312 C.2     1  UNL1        0.3008
     18 O          62.5454   89.1453   16.1960 O.2     1  UNL1       -0.2528
     19 N          64.7894   89.1662   14.8867 N.am    1  UNL1       -0.2905
     20 H          64.7845   91.7881   15.8059 H       1  UNL1        0.1510
     21 H          65.5941   89.6443   14.5817 H       1  UNL1        0.1509
     22 C          62.0497   82.0014   12.3211 C.3     1  UNL1        0.0290
     23 C          61.4419   81.7008   13.6592 C.3     1  UNL1        0.0036
     24 C          60.8206   80.3600   13.9165 C.3     1  UNL1        0.0169
     25 C          59.3688   80.2637   14.2813 C.3     1  UNL1        0.0651
     26 N          58.7510   78.9242   14.5529 N.3     1  UNL1       -0.3211
     27 H          58.7487   78.3707   13.6961 H       1  UNL1        0.1189
     28 H          57.7926   79.0514   14.8780 H       1  UNL1        0.1189
     29 N          62.3543   87.1736    9.1940 N.am    1  UNL1       -0.2970
     30 C          60.9717   87.7509    9.2679 C.2     1  UNL1        0.2410
     31 O          59.7859   86.8424    9.4040 O.2     1  UNL1       -0.2733
     32 H          63.1325   87.7699    9.1047 H       1  UNL1        0.1499
     33 C          60.7750   89.2366    9.2055 C.3     1  UNL1        0.1530
     34 N          60.5072   89.9031    7.8886 N.am    1  UNL1       -0.2969
     35 C          59.3463   89.4623    7.0473 C.2     1  UNL1        0.2389
     36 O          58.4531   88.3550    7.5228 O.2     1  UNL1       -0.2736
     37 H          61.0935   90.6299    7.5766 H       1  UNL1        0.1499
     38 C          59.0786   90.1288    5.7305 C.3     1  UNL1        0.1549
     39 N          60.0948   91.0621    5.1419 N.3     1  UNL1       -0.2895
     40 H          60.6122   90.5305    4.4418 H       1  UNL1        0.1237
     41 C          59.6513   92.3330    4.4800 C.3     1  UNL1        0.0733
     42 C          59.9523   92.5676    3.0294 C.3     1  UNL1        0.0381
     43 C          58.8389   92.5763    2.0242 C.3     1  UNL1        0.0061
     44 C          61.3667   92.7935    2.5838 C.ar    1  UNL1       -0.0212
     45 C          61.7110   94.0019    1.7644 C.ar    1  UNL1       -0.0042
     46 C          63.1254   94.2278    1.3189 C.ar    1  UNL1       -0.0003
     47 C          64.1955   93.2452    1.6927 C.ar    1  UNL1       -0.0000
     48 C          63.8511   92.0369    2.5121 C.ar    1  UNL1       -0.0003
     49 C          62.4368   91.8110    2.9576 C.ar    1  UNL1       -0.0042
     50 C          60.8461   90.0558   10.4600 C.3     1  UNL1        0.0553
     51 C          62.1438   90.6851   10.8723 C.ar    1  UNL1       -0.0200
     52 C          62.5783   90.6367   12.3071 C.ar    1  UNL1       -0.0042
     53 C          63.8760   91.2660   12.7195 C.ar    1  UNL1       -0.0003
     54 C          64.7391   91.9438   11.6969 C.ar    1  UNL1       -0.0000
     55 C          64.3046   91.9923   10.2620 C.ar    1  UNL1       -0.0003
     56 C          63.0069   91.3629    9.8497 C.ar    1  UNL1       -0.0042
     57 C          62.9216   84.9278    8.0175 C.3     1  UNL1        0.0290
     58 C          61.9487   84.8271    6.8802 C.3     1  UNL1        0.0021
     59 C          62.4076   84.3264    5.5427 C.3     1  UNL1        0.0001
     60 C          60.5170   85.2272    7.0803 C.3     1  UNL1        0.0001
@<TRIPOS>BOND
     1    15    16    1
     2    16    17   am
     3    17    18    2
     4    17    19   am
     5    19     7    1
     6     7     8    1
     7     8     9    1
     8     9    10    1
     9    10    11   am
    10    11    12    2
    11    11     6    1
    12     6    22    1
    13    22    23    1
    14    23    24    1
    15    24    25    1
    16    25    26    1
    17     6     2    1
    18     2     3   am
    19     3     4    2
    20     3     1    1
    21     1    57    1
    22    57    58    1
    23    58    59    1
    24    58    60    1
    25     1    29    1
    26    29    30   am
    27    30    31    2
    28    30    33    1
    29    33    50    1
    30    50    51    1
    31    51    52   ar
    32    52    53   ar
    33    53    54   ar
    34    54    55   ar
    35    55    56   ar
    36    33    34    1
    37    34    35   am
    38    35    36    2
    39    35    38    1
    40    38    39    1
    41    39    41    1
    42    41    42    1
    43    42    43    1
    44    42    44    1
    45    44    45   ar
    46    45    46   ar
    47    46    47   ar
    48    47    48   ar
    49    48    49   ar
    50    10    13    1
    51    13    14    1
    52    14     7    1
    53    56    51   ar
    54    49    44   ar
    55    16    20    1
    56    19    21    1
    57    26    27    1
    58    26    28    1
    59     2     5    1
    60    29    32    1
    61    34    37    1
    62    39    40    1
@<TRIPOS>MOLECULE
*****
 60 62 0 0 0
SMALL
GASTEIGER

@<TRIPOS>ATOM
      1 C          63.8637   87.3600   15.1063 C.3     1  UNL1        0.1486
      2 N          62.7483   85.1487   14.3212 N.am    1  UNL1       -0.2970
      3 C          63.9558   85.8924   14.8100 C.2     1  UNL1        0.2406
      4 O          65.2554   85.1685   15.0026 O.2     1  UNL1       -0.2733
      5 H          61.8954   85.6239   14.1948 H       1  UNL1        0.1499
      6 C          62.8404   83.6811   14.0250 C.3     1  UNL1        0.1488
      7 C          63.0079   84.8687    8.7513 C.3     1  UNL1        0.0765
      8 C          64.0658   83.8298    8.9776 C.3     1  UNL1        0.0412
      9 C          64.2885   83.2731   10.3526 C.3     1  UNL1        0.0951
     10 N          63.4531   83.7554   11.5013 N.am    1  UNL1       -0.2781
     11 C          63.6757   83.1988   12.8763 C.2     1  UNL1        0.2435
     12 O          64.7337   82.1598   13.1026 O.2     1  UNL1       -0.2731
     13 C          62.3952   84.7944   11.2750 C.3     1  UNL1        0.0951
     14 C          62.1725   85.3510    9.9000 C.3     1  UNL1        0.0412
     15 C          61.3769   84.2518    3.8565 C.3     1  UNL1        0.1122
     16 N          61.9698   85.1170    4.9289 N.am    1  UNL1       -0.2872
     17 C          62.1924   84.5603    6.3039 C.2     1  UNL1        0.3008
     18 O          61.8222   83.1385    6.6064 O.2     1  UNL1       -0.2528
     19 N          62.7853   85.4254    7.3763 N.am    1  UNL1       -0.2905
     20 H          62.2128   86.0501    4.7303 H       1  UNL1        0.1510
     21 H          63.0283   86.3585    7.1778 H       1  UNL1        0.1509
     22 C          62.0971   82.6958   14.8775 C.3     1  UNL1        0.0290
     23 C          61.4034   81.5275   14.2420 C.3     1  UNL1        0.0036
     24 C          62.0686   80.1833   14.2168 C.3     1  UNL1        0.0169
     25 C          62.3553   79.5128   12.9060 C.3     1  UNL1        0.0651
     26 N          62.7945   80.3286   11.7265 N.3     1  UNL1       -0.3211
     27 H          62.0360   80.9472   11.4395 H       1  UNL1        0.1189
     28 H          63.0371   79.7074   10.9547 H       1  UNL1        0.1189
     29 N          64.0658   88.3610   14.0075 N.am    1  UNL1       -0.2970
     30 C          63.3414   89.6740   14.0466 C.2     1  UNL1        0.2410
     31 O          62.4151   89.9859   15.1844 O.2     1  UNL1       -0.2733
     32 H          64.6737   88.1562   13.2607 H       1  UNL1        0.1499
     33 C          63.5435   90.6750   12.9479 C.3     1  UNL1        0.1530
     34 N          62.3787   91.1166   12.1122 N.am    1  UNL1       -0.2969
     35 C          61.3730   90.1107   11.6361 C.2     1  UNL1        0.2389
     36 O          61.5320   88.6631   11.9957 O.2     1  UNL1       -0.2736
     37 H          62.2743   92.0667   11.8761 H       1  UNL1        0.1499
     38 C          60.2084   90.5523   10.8004 C.3     1  UNL1        0.1549
     39 N          60.2273   90.3399    9.3156 N.3     1  UNL1       -0.2895
     40 H          61.0481   90.8289    8.9586 H       1  UNL1        0.1237
     41 C          60.2754   88.9484    8.7576 C.3     1  UNL1        0.0733
     42 C          59.5419   88.6227    7.4904 C.3     1  UNL1        0.0381
     43 C          59.0878   87.2176    7.2265 C.3     1  UNL1        0.0061
     44 C          59.2624   89.7021    6.4870 C.ar    1  UNL1       -0.0212
     45 C          60.3964   90.3618    5.7596 C.ar    1  UNL1       -0.0042
     46 C          60.1169   91.4412    4.7562 C.ar    1  UNL1       -0.0003
     47 C          58.7034   91.8609    4.4802 C.ar    1  UNL1       -0.0000
     48 C          57.5695   91.2012    5.2076 C.ar    1  UNL1       -0.0003
     49 C          57.8491   90.1218    6.2110 C.ar    1  UNL1       -0.0042
     50 C          64.9101   91.2343   12.6849 C.3     1  UNL1        0.0553
     51 C          65.7509   91.7274   13.8251 C.ar    1  UNL1       -0.0200
     52 C          65.1180   92.0145   15.1543 C.ar    1  UNL1       -0.0042
     53 C          65.9588   92.5075   16.2945 C.ar    1  UNL1       -0.0003
     54 C          67.4325   92.7135   16.1055 C.ar    1  UNL1       -0.0000
     55 C          68.0655   92.4264   14.7762 C.ar    1  UNL1       -0.0003
     56 C          67.2247   91.9333   13.6360 C.ar    1  UNL1       -0.0042
     57 C          63.5696   87.8265   16.5012 C.3     1  UNL1        0.0290
     58 C          62.5959   87.0701   17.3553 C.3     1  UNL1        0.0021
     59 C          61.2806   86.6305   16.7837 C.3     1  UNL1        0.0001
     60 C          62.9374   86.7533   18.7811 C.3     1  UNL1        0.0001
@<TRIPOS>BOND
     1    15    16    1
     2    16    17   am
     3    17    18    2
     4    17    19   am
     5    19     7    1
     6     7     8    1
     7     8     9    1
     8     9    10    1
     9    10    11   am
    10    11    12    2
    11    11     6    1
    12     6    22    1
    13    22    23    1
    14    23    24    1
    15    24    25    1
    16    25    26    1
    17     6     2    1
    18     2     3   am
    19     3     4    2
    20     3     1    1
    21     1    57    1
    22    57    58    1
    23    58    59    1
    24    58    60    1
    25     1    29    1
    26    29    30   am
    27    30    31    2
    28    30    33    1
    29    33    50    1
    30    50    51    1
    31    51    52   ar
    32    52    53   ar
    33    53    54   ar
    34    54    55   ar
    35    55    56   ar
    36    33    34    1
    37    34    35   am
    38    35    36    2
    39    35    38    1
    40    38    39    1
    41    39    41    1
    42    41    42    1
    43    42    43    1
    44    42    44    1
    45    44    45   ar
    46    45    46   ar
    47    46    47   ar
    48    47    48   ar
    49    48    49   ar
    50    10    13    1
    51    13    14    1
    52    14     7    1
    53    56    51   ar
    54    49    44   ar
    55    16    20    1
    56    19    21    1
    57    26    27    1
    58    26    28    1
    59     2     5    1
    60    29    32    1
    61    34    37    1
    62    39    40    1
@<TRIPOS>MOLECULE
*****
 60 62 0 0 0
SMALL
GASTEIGER

@<TRIPOS>ATOM
      1 C          61.3423   85.8286   10.2291 C.3     1  UNL1        0.1486
      2 N          60.8142   88.1529    9.1953 N.am    1  UNL1       -0.2970
      3 C          60.7610   87.2055   10.3570 C.2     1  UNL1        0.2406
      4 O          60.1264   87.6349   11.6465 O.2     1  UNL1       -0.2733
      5 H          61.2306   87.8710    8.3489 H       1  UNL1        0.1499
      6 C          60.2328   89.5298    9.3232 C.3     1  UNL1        0.1488
      7 C          64.6108   91.6893   11.6511 C.3     1  UNL1        0.0765
      8 C          63.4540   92.0318   12.5424 C.3     1  UNL1        0.0412
      9 C          62.0703   91.5776   12.1832 C.3     1  UNL1        0.0951
     10 N          61.8434   90.7808   10.9328 N.am    1  UNL1       -0.2781
     11 C          60.4597   90.3265   10.5736 C.2     1  UNL1        0.2435
     12 O          59.3029   90.6691   11.4648 O.2     1  UNL1       -0.2731
     13 C          63.0002   90.4383   10.0415 C.3     1  UNL1        0.0951
     14 C          64.3839   90.8925   10.4007 C.3     1  UNL1        0.0412
     15 C          68.0314   93.3172   15.2078 C.3     1  UNL1        0.1122
     16 N          67.7048   92.9575   13.7886 N.am    1  UNL1       -0.2872
     17 C          66.3211   92.5033   13.4294 C.2     1  UNL1        0.3008
     18 O          65.2639   92.4088   14.4894 O.2     1  UNL1       -0.2528
     19 N          65.9945   92.1435   12.0103 N.am    1  UNL1       -0.2905
     20 H          68.3987   93.0195   13.0929 H       1  UNL1        0.1510
     21 H          66.6884   92.2056   11.3146 H       1  UNL1        0.1509
     22 C          59.4246   90.1098    8.2005 C.3     1  UNL1        0.0290
     23 C          59.3413   89.3906    6.8868 C.3     1  UNL1        0.0036
     24 C          59.2701   90.1710    5.6077 C.3     1  UNL1        0.0169
     25 C          58.1938   91.1977    5.4145 C.3     1  UNL1        0.0651
     26 N          56.7677   90.7659    5.2416 N.3     1  UNL1       -0.3211
     27 H          56.6720   90.2515    4.3660 H       1  UNL1        0.1189
     28 H          56.1638   91.5877    5.2209 H       1  UNL1        0.1189
     29 N          62.0392   85.1973   11.3978 N.am    1  UNL1       -0.2970
     30 C          62.9301   86.0248   12.2762 C.2     1  UNL1        0.2410
     31 O          63.1241   87.4836   11.9859 O.2     1  UNL1       -0.2733
     32 H          61.9119   84.2398   11.5883 H       1  UNL1        0.1499
     33 C          63.6270   85.3935   13.4449 C.3     1  UNL1        0.1530
     34 N          63.3567   83.9600   13.7943 N.am    1  UNL1       -0.2969
     35 C          62.2276   83.6135   14.7191 C.2     1  UNL1        0.2389
     36 O          61.3690   84.7006   15.2945 O.2     1  UNL1       -0.2736
     37 H          63.9202   83.2465   13.4167 H       1  UNL1        0.1499
     38 C          61.9573   82.1801   15.0685 C.3     1  UNL1        0.1549
     39 N          61.2545   81.2888   14.0879 N.3     1  UNL1       -0.2895
     40 H          61.1572   81.8211   13.2233 H       1  UNL1        0.1237
     41 C          61.8524   79.9643   13.7160 C.3     1  UNL1        0.0733
     42 C          62.5477   79.7993   12.3972 C.3     1  UNL1        0.0381
     43 C          62.4810   78.4872   11.6732 C.3     1  UNL1        0.0061
     44 C          63.3099   80.9462   11.8024 C.ar    1  UNL1       -0.0212
     45 C          64.4394   81.5723   12.5656 C.ar    1  UNL1       -0.0042
     46 C          65.2015   82.7192   11.9708 C.ar    1  UNL1       -0.0003
     47 C          64.8341   83.2400   10.6129 C.ar    1  UNL1       -0.0000
     48 C          63.7047   82.6139    9.8498 C.ar    1  UNL1       -0.0003
     49 C          62.9425   81.4670   10.4446 C.ar    1  UNL1       -0.0042
     50 C          64.5943   86.1956   14.2640 C.3     1  UNL1        0.0553
     51 C          64.0959   87.3136   15.1310 C.ar    1  UNL1       -0.0200
     52 C          64.2355   88.7357   14.6749 C.ar    1  UNL1       -0.0042
     53 C          63.7372   89.8538   15.5418 C.ar    1  UNL1       -0.0003
     54 C          63.0993   89.5497   16.8649 C.ar    1  UNL1       -0.0000
     55 C          62.9597   88.1276   17.3211 C.ar    1  UNL1       -0.0003
     56 C          63.4581   87.0095   16.4542 C.ar    1  UNL1       -0.0042
     57 C          61.2268   85.0831    8.9327 C.3     1  UNL1        0.0290
     58 C          62.3058   85.2062    7.8981 C.3     1  UNL1        0.0021
     59 C          63.6169   85.8424    8.2537 C.3     1  UNL1        0.0001
     60 C          62.0739   84.6931    6.5077 C.3     1  UNL1        0.0001
@<TRIPOS>BOND
     1    15    16    1
     2    16    17   am
     3    17    18    2
     4    17    19   am
     5    19     7    1
     6     7     8    1
     7     8     9    1
     8     9    10    1
     9    10    11   am
    10    11    12    2
    11    11     6    1
    12     6    22    1
    13    22    23    1
    14    23    24    1
    15    24    25    1
    16    25    26    1
    17     6     2    1
    18     2     3   am
    19     3     4    2
    20     3     1    1
    21     1    57    1
    22    57    58    1
    23    58    59    1
    24    58    60    1
    25     1    29    1
    26    29    30   am
    27    30    31    2
    28    30    33    1
    29    33    50    1
    30    50    51    1
    31    51    52   ar
    32    52    53   ar
    33    53    54   ar
    34    54    55   ar
    35    55    56   ar
    36    33    34    1
    37    34    35   am
    38    35    36    2
    39    35    38    1
    40    38    39    1
    41    39    41    1
    42    41    42    1
    43    42    43    1
    44    42    44    1
    45    44    45   ar
    46    45    46   ar
    47    46    47   ar
    48    47    48   ar
    49    48    49   ar
    50    10    13    1
    51    13    14    1
    52    14     7    1
    53    56    51   ar
    54    49    44   ar
    55    16    20    1
    56    19    21    1
    57    26    27    1
    58    26    28    1
    59     2     5    1
    60    29    32    1
    61    34    37    1
    62    39    40    1
