@<TRIPOS>MOLECULE
*****
 27 28 0 0 0
SMALL
GASTEIGER

@<TRIPOS>ATOM
      1 C          62.7355   85.4609   12.3230 C.ar    1  UNL1        0.0337
      2 C          62.6755   83.9730   12.5032 C.ar    1  UNL1        0.0069
      3 C          63.4514   83.3194   13.6081 C.ar    1  UNL1        0.0716
      4 C          64.2873   84.1537   14.5328 C.ar    1  UNL1        0.0070
      5 C          64.3473   85.6416   14.3526 C.ar    1  UNL1        0.0369
      6 C          63.5714   86.2952   13.2477 C.ar    1  UNL1        0.1390
      7 C          60.4079   87.4217    9.0082 C.ar    1  UNL1        0.1053
      8 C          60.1433   87.7993   10.4356 C.ar    1  UNL1        0.0183
      9 C          60.9192   87.1457   11.5405 C.ar    1  UNL1        0.0011
     10 C          61.9596   86.1145   11.2181 C.ar    1  UNL1       -0.0010
     11 C          62.2242   85.7369    9.7907 C.ar    1  UNL1       -0.0205
     12 C          63.2647   84.7056    9.4682 C.3     1  UNL1        0.0311
     13 C          61.4483   86.3905    8.6858 C.ar    1  UNL1        0.0141
     14 S          59.6320   88.0753    7.9033 S.O2    1  UNL1        0.0086
     15 O          60.1635   89.4140    8.3220 O.2     1  UNL1       -0.1686
     16 O          59.1004   86.7365    7.4847 O.2     1  UNL1       -0.1686
     17 C          59.4229   89.9223    6.0882 C.3     1  UNL1        0.0276
     18 C          58.8561   88.7289    6.7984 C.3     1  UNL1        0.1560
     19 C          63.3914   81.8314   13.7882 C.3     1  UNL1        0.4186
     20 F          63.3313   80.3435   13.9684 F       1  UNL1       -0.1659
     21 F          64.5395   81.6699   12.8366 F       1  UNL1       -0.1659
     22 F          62.2432   81.9930   14.7398 F       1  UNL1       -0.1659
     23 O          63.6314   87.7832   13.0676 O.3     1  UNL1       -0.4694
     24 C          64.2448   88.6434   14.1323 C.3     1  UNL1        0.2469
     25 C          63.4853   89.8156   14.6794 C.2     1  UNL1        0.0940
     26 O          63.8207   91.2051   14.2244 O.co2   1  UNL1       -0.5454
     27 O          62.3904   89.5984   15.6814 O.co2   1  UNL1       -0.5454
@<TRIPOS>UNITY_ATOM_ATTR
26 1
charge -1
@<TRIPOS>BOND
     1    17    18    1
     2    18    14    1
     3    14    15    2
     4    14    16    2
     5    14     7    1
     6     7     8   ar
     7     8     9   ar
     8     9    10   ar
     9    10     1    1
    10     1     2   ar
    11     2     3   ar
    12     3    19    1
    13    19    20    1
    14    19    21    1
    15    19    22    1
    16     3     4   ar
    17     4     5   ar
    18     5     6   ar
    19     6    23    1
    20    23    24    1
    21    24    25    1
    22    25    26   ar
    23    25    27   ar
    24    10    11   ar
    25    11    12    1
    26    11    13   ar
    27    13     7   ar
    28     6     1   ar
@<TRIPOS>MOLECULE
*****
 27 28 0 0 0
SMALL
GASTEIGER

@<TRIPOS>ATOM
      1 C          62.4499   88.1283   11.4118 C.ar    1  UNL1        0.0337
      2 C          61.6401   88.6977   10.2848 C.ar    1  UNL1        0.0069
      3 C          60.8378   87.7873    9.4030 C.ar    1  UNL1        0.0716
      4 C          60.8453   86.3076    9.6482 C.ar    1  UNL1        0.0070
      5 C          61.6550   85.7382   10.7752 C.ar    1  UNL1        0.0369
      6 C          62.4573   86.6486   11.6570 C.ar    1  UNL1        0.1390
      7 C          64.8568   90.8595   14.0571 C.ar    1  UNL1        0.1053
      8 C          64.5611   89.4568   14.4985 C.ar    1  UNL1        0.0183
      9 C          63.7588   88.5464   13.6167 C.ar    1  UNL1        0.0011
     10 C          63.2522   89.0387   12.2935 C.ar    1  UNL1       -0.0010
     11 C          63.5479   90.4414   11.8521 C.ar    1  UNL1       -0.0205
     12 C          63.0412   90.9338   10.5288 C.3     1  UNL1        0.0311
     13 C          64.3502   91.3518   12.7339 C.ar    1  UNL1        0.0141
     14 S          65.6591   91.7699   14.9388 S.O2    1  UNL1        0.0086
     15 O          66.8410   91.6091   14.0294 O.2     1  UNL1       -0.1686
     16 O          64.4771   91.9306   15.8483 O.2     1  UNL1       -0.1686
     17 C          67.9090   92.3871   16.0820 C.3     1  UNL1        0.0276
     18 C          66.4614   92.6802   15.8206 C.3     1  UNL1        0.1560
     19 C          60.0281   88.3568    8.2760 C.3     1  UNL1        0.4186
     20 F          59.2184   88.9262    7.1490 F       1  UNL1       -0.1659
     21 F          59.9409   89.6672    9.0007 F       1  UNL1       -0.1659
     22 F          60.1153   87.0464    7.5513 F       1  UNL1       -0.1659
     23 O          63.2670   86.0791   12.7840 O.3     1  UNL1       -0.4694
     24 C          63.1928   84.6136   13.0951 C.3     1  UNL1        0.2469
     25 C          62.9128   84.1576   14.4965 C.2     1  UNL1        0.0940
     26 O          61.7941   84.7800   15.2782 O.co2   1  UNL1       -0.5454
     27 O          63.7515   83.0794   15.1160 O.co2   1  UNL1       -0.5454
@<TRIPOS>UNITY_ATOM_ATTR
26 1
charge -1
@<TRIPOS>BOND
     1    17    18    1
     2    18    14    1
     3    14    15    2
     4    14    16    2
     5    14     7    1
     6     7     8   ar
     7     8     9   ar
     8     9    10   ar
     9    10     1    1
    10     1     2   ar
    11     2     3   ar
    12     3    19    1
    13    19    20    1
    14    19    21    1
    15    19    22    1
    16     3     4   ar
    17     4     5   ar
    18     5     6   ar
    19     6    23    1
    20    23    24    1
    21    24    25    1
    22    25    26   ar
    23    25    27   ar
    24    10    11   ar
    25    11    12    1
    26    11    13   ar
    27    13     7   ar
    28     6     1   ar
@<TRIPOS>MOLECULE
*****
 27 28 0 0 0
SMALL
GASTEIGER

@<TRIPOS>ATOM
      1 C          62.1276   88.4319   11.0088 C.ar    1  UNL1        0.0337
      2 C          62.7205   87.4108   10.0837 C.ar    1  UNL1        0.0069
      3 C          61.8272   86.5874    9.2039 C.ar    1  UNL1        0.0716
      4 C          60.3410   86.7851    9.2492 C.ar    1  UNL1        0.0070
      5 C          59.7481   87.8061   10.1743 C.ar    1  UNL1        0.0369
      6 C          60.6414   88.6295   11.0541 C.ar    1  UNL1        0.1390
      7 C          64.8074   90.9022   13.6481 C.ar    1  UNL1        0.1053
      8 C          64.4010   89.5224   14.0735 C.ar    1  UNL1        0.0183
      9 C          63.5077   88.6990   13.1937 C.ar    1  UNL1        0.0011
     10 C          63.0208   89.2553   11.8886 C.ar    1  UNL1       -0.0010
     11 C          63.4273   90.6351   11.4632 C.ar    1  UNL1       -0.0205
     12 C          62.9404   91.1916   10.1581 C.3     1  UNL1        0.0311
     13 C          64.3205   91.4586   12.3430 C.ar    1  UNL1        0.0141
     14 S          65.7007   91.7256   14.5279 S.O2    1  UNL1        0.0086
     15 O          64.6476   91.7268   15.5961 O.2     1  UNL1       -0.1686
     16 O          66.7538   91.7245   13.4597 O.2     1  UNL1       -0.1686
     17 C          67.9636   92.0507   15.7622 C.3     1  UNL1        0.0276
     18 C          66.5940   92.5490   15.4077 C.3     1  UNL1        0.1560
     19 C          62.4202   85.5663    8.2788 C.3     1  UNL1        0.4186
     20 F          63.0132   84.5452    7.3538 F       1  UNL1       -0.1659
     21 F          61.3913   85.9079    7.2422 F       1  UNL1       -0.1659
     22 F          63.4491   85.2247    9.3154 F       1  UNL1       -0.1659
     23 O          60.0484   89.6507   11.9792 O.3     1  UNL1       -0.4694
     24 C          58.5687   89.6713   12.2241 C.3     1  UNL1        0.2469
     25 C          57.9861   88.8895   13.3640 C.2     1  UNL1        0.0940
     26 O          58.7631   88.7274   14.6368 O.co2   1  UNL1       -0.5454
     27 O          56.6266   88.2698   13.2312 O.co2   1  UNL1       -0.5454
@<TRIPOS>UNITY_ATOM_ATTR
26 1
charge -1
@<TRIPOS>BOND
     1    17    18    1
     2    18    14    1
     3    14    15    2
     4    14    16    2
     5    14     7    1
     6     7     8   ar
     7     8     9   ar
     8     9    10   ar
     9    10     1    1
    10     1     2   ar
    11     2     3   ar
    12     3    19    1
    13    19    20    1
    14    19    21    1
    15    19    22    1
    16     3     4   ar
    17     4     5   ar
    18     5     6   ar
    19     6    23    1
    20    23    24    1
    21    24    25    1
    22    25    26   ar
    23    25    27   ar
    24    10    11   ar
    25    11    12    1
    26    11    13   ar
    27    13     7   ar
    28     6     1   ar
@<TRIPOS>MOLECULE
*****
 27 28 0 0 0
SMALL
GASTEIGER

@<TRIPOS>ATOM
      1 C          61.7186   87.4706   10.3232 C.ar    1  UNL1        0.0337
      2 C          60.7967   87.5144    9.1408 C.ar    1  UNL1        0.0069
      3 C          60.3573   88.8348    8.5808 C.ar    1  UNL1        0.0716
      4 C          60.8398   90.1113    9.2033 C.ar    1  UNL1        0.0070
      5 C          61.7617   90.0675   10.3858 C.ar    1  UNL1        0.0369
      6 C          62.2011   88.7471   10.9457 C.ar    1  UNL1        0.1390
      7 C          63.0368   83.5094   12.0030 C.ar    1  UNL1        0.1053
      8 C          62.3893   84.5251   12.8969 C.ar    1  UNL1        0.0183
      9 C          61.9499   85.8454   12.3370 C.ar    1  UNL1        0.0011
     10 C          62.1580   86.1502   10.8831 C.ar    1  UNL1       -0.0010
     11 C          62.8055   85.1345    9.9892 C.ar    1  UNL1       -0.0205
     12 C          63.0136   85.4392    8.5352 C.3     1  UNL1        0.0311
     13 C          63.2449   83.8141   10.5491 C.ar    1  UNL1        0.0141
     14 S          63.4762   82.1890   12.5629 S.O2    1  UNL1        0.0086
     15 O          64.7069   82.2355   11.7067 O.2     1  UNL1       -0.1686
     16 O          62.2454   82.1426   13.4191 O.2     1  UNL1       -0.1686
     17 C          62.9007   79.9159   13.6817 C.3     1  UNL1        0.0276
     18 C          63.9156   80.8686   13.1228 C.3     1  UNL1        0.1560
     19 C          59.4354   88.8786    7.3984 C.3     1  UNL1        0.4186
     20 F          58.5135   88.9223    6.2159 F       1  UNL1       -0.1659
     21 F          60.1869   90.0580    6.8560 F       1  UNL1       -0.1659
     22 F          58.6839   87.6991    7.9407 F       1  UNL1       -0.1659
     23 O          63.1230   88.7033   12.1282 O.3     1  UNL1       -0.4694
     24 C          63.4649   89.9674   12.8598 C.3     1  UNL1        0.2469
     25 C          63.5263   89.9733   14.3586 C.2     1  UNL1        0.0940
     26 O          63.5204   91.2748   15.1043 O.co2   1  UNL1       -0.5454
     27 O          63.5934   88.6778   15.1116 O.co2   1  UNL1       -0.5454
@<TRIPOS>UNITY_ATOM_ATTR
26 1
charge -1
@<TRIPOS>BOND
     1    17    18    1
     2    18    14    1
     3    14    15    2
     4    14    16    2
     5    14     7    1
     6     7     8   ar
     7     8     9   ar
     8     9    10   ar
     9    10     1    1
    10     1     2   ar
    11     2     3   ar
    12     3    19    1
    13    19    20    1
    14    19    21    1
    15    19    22    1
    16     3     4   ar
    17     4     5   ar
    18     5     6   ar
    19     6    23    1
    20    23    24    1
    21    24    25    1
    22    25    26   ar
    23    25    27   ar
    24    10    11   ar
    25    11    12    1
    26    11    13   ar
    27    13     7   ar
    28     6     1   ar
@<TRIPOS>MOLECULE
*****
 27 28 0 0 0
SMALL
GASTEIGER

@<TRIPOS>ATOM
      1 C          61.8959   88.4557   10.0539 C.ar    1  UNL1        0.0337
      2 C          62.5096   87.2906    9.3356 C.ar    1  UNL1        0.0069
      3 C          61.6545   86.3993    8.4845 C.ar    1  UNL1        0.0716
      4 C          60.1857   86.6730    8.3517 C.ar    1  UNL1        0.0070
      5 C          59.5720   87.8381    9.0700 C.ar    1  UNL1        0.0369
      6 C          60.4271   88.7294    9.9211 C.ar    1  UNL1        0.1390
      7 C          64.4613   91.1297   12.6071 C.ar    1  UNL1        0.1053
      8 C          63.9551   91.6181   11.2822 C.ar    1  UNL1        0.0183
      9 C          63.1000   90.7268   10.4312 C.ar    1  UNL1        0.0011
     10 C          62.7510   89.3470   10.9049 C.ar    1  UNL1       -0.0010
     11 C          63.2572   88.8586   12.2298 C.ar    1  UNL1       -0.0205
     12 C          62.9083   87.4788   12.7036 C.3     1  UNL1        0.0311
     13 C          64.1123   89.7499   13.0808 C.ar    1  UNL1        0.0141
     14 S          65.3164   92.0210   13.4581 S.O2    1  UNL1        0.0086
     15 O          66.0536   92.4811   12.2355 O.2     1  UNL1       -0.1686
     16 O          64.5792   91.5609   14.6807 O.2     1  UNL1       -0.1686
     17 C          66.2326   92.6993   15.7927 C.3     1  UNL1        0.0276
     18 C          66.1715   92.9123   14.3092 C.3     1  UNL1        0.1560
     19 C          62.2683   85.2342    7.7662 C.3     1  UNL1        0.4186
     20 F          62.8820   84.0691    7.0479 F       1  UNL1       -0.1659
     21 F          63.3974   85.2202    8.7535 F       1  UNL1       -0.1659
     22 F          61.1391   85.2481    6.7789 F       1  UNL1       -0.1659
     23 O          59.8134   89.8945   10.6394 O.3     1  UNL1       -0.4694
     24 C          58.7443   89.6640   11.6660 C.3     1  UNL1        0.2469
     25 C          59.1207   89.3202   13.0767 C.2     1  UNL1        0.0940
     26 O          58.1740   88.5352   13.9355 O.co2   1  UNL1       -0.5454
     27 O          60.4438   89.7614   13.6287 O.co2   1  UNL1       -0.5454
@<TRIPOS>UNITY_ATOM_ATTR
26 1
charge -1
@<TRIPOS>BOND
     1    17    18    1
     2    18    14    1
     3    14    15    2
     4    14    16    2
     5    14     7    1
     6     7     8   ar
     7     8     9   ar
     8     9    10   ar
     9    10     1    1
    10     1     2   ar
    11     2     3   ar
    12     3    19    1
    13    19    20    1
    14    19    21    1
    15    19    22    1
    16     3     4   ar
    17     4     5   ar
    18     5     6   ar
    19     6    23    1
    20    23    24    1
    21    24    25    1
    22    25    26   ar
    23    25    27   ar
    24    10    11   ar
    25    11    12    1
    26    11    13   ar
    27    13     7   ar
    28     6     1   ar
@<TRIPOS>MOLECULE
*****
 27 28 0 0 0
SMALL
GASTEIGER

@<TRIPOS>ATOM
      1 C          63.4927   88.4868   12.7426 C.ar    1  UNL1        0.0337
      2 C          64.2861   89.1753   13.8133 C.ar    1  UNL1        0.0069
      3 C          64.4963   90.6593   13.7539 C.ar    1  UNL1        0.0716
      4 C          63.9131   91.4548   12.6239 C.ar    1  UNL1        0.0070
      5 C          63.1198   90.7662   11.5532 C.ar    1  UNL1        0.0369
      6 C          62.9096   89.2822   11.6125 C.ar    1  UNL1        0.1390
      7 C          62.8622   84.0347   12.9207 C.ar    1  UNL1        0.1053
      8 C          62.3478   84.8188   11.7500 C.ar    1  UNL1        0.0183
      9 C          62.5580   86.3028   11.6906 C.ar    1  UNL1        0.0011
     10 C          63.2825   87.0027   12.8020 C.ar    1  UNL1       -0.0010
     11 C          63.7969   86.2186   13.9727 C.ar    1  UNL1       -0.0205
     12 C          64.5215   86.9186   15.0841 C.3     1  UNL1        0.0311
     13 C          63.5867   84.7346   14.0321 C.ar    1  UNL1        0.0141
     14 S          62.6520   82.5507   12.9801 S.O2    1  UNL1        0.0086
     15 O          62.7452   82.4777   11.4848 O.2     1  UNL1       -0.1686
     16 O          62.5587   82.6237   14.4754 O.2     1  UNL1       -0.1686
     17 C          61.3143   80.5008   13.8509 C.3     1  UNL1        0.0276
     18 C          62.4418   81.0667   13.0394 C.3     1  UNL1        0.1560
     19 C          65.2897   91.3478   14.8247 C.3     1  UNL1        0.4186
     20 F          66.0830   92.0363   15.8955 F       1  UNL1       -0.1659
     21 F          66.4673   91.4302   13.8993 F       1  UNL1       -0.1659
     22 F          64.1121   91.2655   15.7501 F       1  UNL1       -0.1659
     23 O          62.1162   88.5937   10.5418 O.3     1  UNL1       -0.4694
     24 C          60.7319   89.0679   10.2119 C.3     1  UNL1        0.2469
     25 C          59.8241   89.5503   11.3043 C.2     1  UNL1        0.0940
     26 O          59.4591   88.6348   12.4351 O.co2   1  UNL1       -0.5454
     27 O          59.2812   90.9480   11.2658 O.co2   1  UNL1       -0.5454
@<TRIPOS>UNITY_ATOM_ATTR
26 1
charge -1
@<TRIPOS>BOND
     1    17    18    1
     2    18    14    1
     3    14    15    2
     4    14    16    2
     5    14     7    1
     6     7     8   ar
     7     8     9   ar
     8     9    10   ar
     9    10     1    1
    10     1     2   ar
    11     2     3   ar
    12     3    19    1
    13    19    20    1
    14    19    21    1
    15    19    22    1
    16     3     4   ar
    17     4     5   ar
    18     5     6   ar
    19     6    23    1
    20    23    24    1
    21    24    25    1
    22    25    26   ar
    23    25    27   ar
    24    10    11   ar
    25    11    12    1
    26    11    13   ar
    27    13     7   ar
    28     6     1   ar
@<TRIPOS>MOLECULE
*****
 27 28 0 0 0
SMALL
GASTEIGER

@<TRIPOS>ATOM
      1 C          63.0206   88.0858   12.1602 C.ar    1  UNL1        0.0337
      2 C          63.9137   89.0526   12.8796 C.ar    1  UNL1        0.0069
      3 C          63.8697   90.5122   12.5365 C.ar    1  UNL1        0.0716
      4 C          62.9326   91.0049   11.4740 C.ar    1  UNL1        0.0070
      5 C          62.0395   90.0381   10.7546 C.ar    1  UNL1        0.0369
      6 C          62.0835   88.5785   11.0977 C.ar    1  UNL1        0.1390
      7 C          63.1528   83.7071   13.1895 C.ar    1  UNL1        0.1053
      8 C          62.4987   84.1591   11.9176 C.ar    1  UNL1        0.0183
      9 C          62.4547   85.6187   11.5745 C.ar    1  UNL1        0.0011
     10 C          63.0647   86.6262   12.5033 C.ar    1  UNL1       -0.0010
     11 C          63.7187   86.1742   13.7752 C.ar    1  UNL1       -0.0205
     12 C          64.3288   87.1817   14.7041 C.3     1  UNL1        0.0311
     13 C          63.7628   84.7146   14.1183 C.ar    1  UNL1        0.0141
     14 S          63.1968   82.2475   13.5326 S.O2    1  UNL1        0.0086
     15 O          63.8533   82.5749   14.8410 O.2     1  UNL1       -0.1686
     16 O          62.5403   81.9201   12.2242 O.2     1  UNL1       -0.1686
     17 C          62.3079   79.8294   13.1969 C.3     1  UNL1        0.0276
     18 C          63.2408   80.7879   13.8757 C.3     1  UNL1        0.1560
     19 C          64.7628   91.4790   13.2559 C.3     1  UNL1        0.4186
     20 F          65.6559   92.4458   13.9754 F       1  UNL1       -0.1659
     21 F          64.5504   92.4868   12.1655 F       1  UNL1       -0.1659
     22 F          64.9753   90.4712   14.3464 F       1  UNL1       -0.1659
     23 O          61.1904   87.6117   10.3782 O.3     1  UNL1       -0.4694
     24 C          61.0970   87.6480    8.8816 C.3     1  UNL1        0.2469
     25 C          59.7800   87.9243    8.2187 C.2     1  UNL1        0.0940
     26 O          59.5599   89.2223    7.4999 O.co2   1  UNL1       -0.5454
     27 O          58.6832   86.9026    8.2747 O.co2   1  UNL1       -0.5454
@<TRIPOS>UNITY_ATOM_ATTR
26 1
charge -1
@<TRIPOS>BOND
     1    17    18    1
     2    18    14    1
     3    14    15    2
     4    14    16    2
     5    14     7    1
     6     7     8   ar
     7     8     9   ar
     8     9    10   ar
     9    10     1    1
    10     1     2   ar
    11     2     3   ar
    12     3    19    1
    13    19    20    1
    14    19    21    1
    15    19    22    1
    16     3     4   ar
    17     4     5   ar
    18     5     6   ar
    19     6    23    1
    20    23    24    1
    21    24    25    1
    22    25    26   ar
    23    25    27   ar
    24    10    11   ar
    25    11    12    1
    26    11    13   ar
    27    13     7   ar
    28     6     1   ar
@<TRIPOS>MOLECULE
*****
 27 28 0 0 0
SMALL
GASTEIGER

@<TRIPOS>ATOM
      1 C          62.9951   86.7676   12.2000 C.ar    1  UNL1        0.0337
      2 C          63.3977   85.3798   12.6019 C.ar    1  UNL1        0.0069
      3 C          62.8679   84.1968   11.8470 C.ar    1  UNL1        0.0716
      4 C          61.9355   84.4018   10.6900 C.ar    1  UNL1        0.0070
      5 C          61.5329   85.7897   10.2881 C.ar    1  UNL1        0.0369
      6 C          62.0627   86.9726   11.0431 C.ar    1  UNL1        0.1390
      7 C          64.5845   90.3164   14.4649 C.ar    1  UNL1        0.1053
      8 C          63.9043   90.5139   13.1427 C.ar    1  UNL1        0.0183
      9 C          63.3745   89.3310   12.3877 C.ar    1  UNL1        0.0011
     10 C          63.5249   87.9506   12.9549 C.ar    1  UNL1       -0.0010
     11 C          64.2052   87.7531   14.2771 C.ar    1  UNL1       -0.0205
     12 C          64.3557   86.3726   14.8444 C.3     1  UNL1        0.0311
     13 C          64.7350   88.9360   15.0321 C.ar    1  UNL1        0.0141
     14 S          65.1143   91.4994   15.2198 S.O2    1  UNL1        0.0086
     15 O          66.4482   91.3255   14.5561 O.2     1  UNL1       -0.1686
     16 O          63.7804   91.6732   15.8835 O.2     1  UNL1       -0.1686
     17 C          67.1230   92.8550   16.1565 C.3     1  UNL1        0.0276
     18 C          65.6442   92.6823   15.9748 C.3     1  UNL1        0.1560
     19 C          63.2706   82.8089   12.2490 C.3     1  UNL1        0.4186
     20 F          63.6732   81.4210   12.6510 F       1  UNL1       -0.1659
     21 F          63.0087   82.3283   10.8524 F       1  UNL1       -0.1659
     22 F          63.5325   83.2894   13.6455 F       1  UNL1       -0.1659
     23 O          61.6600   88.3605   10.6410 O.3     1  UNL1       -0.4694
     24 C          60.2080   88.7314   10.5774 C.3     1  UNL1        0.2469
     25 C          59.6099   89.6054   11.6397 C.2     1  UNL1        0.0940
     26 O          59.2544   91.0289   11.3275 O.co2   1  UNL1       -0.5454
     27 O          59.3672   89.0559   13.0142 O.co2   1  UNL1       -0.5454
@<TRIPOS>UNITY_ATOM_ATTR
26 1
charge -1
@<TRIPOS>BOND
     1    17    18    1
     2    18    14    1
     3    14    15    2
     4    14    16    2
     5    14     7    1
     6     7     8   ar
     7     8     9   ar
     8     9    10   ar
     9    10     1    1
    10     1     2   ar
    11     2     3   ar
    12     3    19    1
    13    19    20    1
    14    19    21    1
    15    19    22    1
    16     3     4   ar
    17     4     5   ar
    18     5     6   ar
    19     6    23    1
    20    23    24    1
    21    24    25    1
    22    25    26   ar
    23    25    27   ar
    24    10    11   ar
    25    11    12    1
    26    11    13   ar
    27    13     7   ar
    28     6     1   ar
