@<TRIPOS>MOLECULE
*****
 28 31 0 0 0
SMALL
GASTEIGER

@<TRIPOS>ATOM
      1 C          64.6191   91.2263   13.9594 C.ar    1  UNL1        0.1264
      2 C          64.0469   91.3335   15.3419 C.ar    1  UNL1        0.1099
      3 N          64.7863   92.0937   16.4027 N.ar    1  UNL1       -0.2221
      4 C          66.0978   92.7467   16.0812 C.ar    1  UNL1        0.2016
      5 N          66.6700   92.6396   14.6988 N.ar    1  UNL1       -0.1889
      6 C          65.9307   91.8793   13.6378 C.ar    1  UNL1        0.2370
      7 C          63.2635   84.5150   13.3507 C.3     1  UNL1        0.1123
      8 N          63.4175   86.0028   13.2377 N.pl3   1  UNL1       -0.3031
      9 C          64.1569   86.7630   14.2985 C.3     1  UNL1        0.1128
     10 C          64.3110   88.2508   14.1855 C.3     1  UNL1        0.1199
     11 N          63.7257   88.9783   13.0116 N.am    1  UNL1       -0.2521
     12 C          63.8798   90.4661   12.8986 C.2     1  UNL1        0.2589
     13 O          63.2944   91.1937   11.7246 O.2     1  UNL1       -0.2693
     14 C          62.9863   88.2182   11.9507 C.ar    1  UNL1        0.0675
     15 C          62.4010   88.9457   10.7768 C.ar    1  UNL1        0.0162
     16 C          61.6616   88.1855    9.7160 C.ar    1  UNL1        0.0014
     17 C          61.5076   86.6978    9.8290 C.ar    1  UNL1        0.0014
     18 C          62.0929   85.9702   11.0029 C.ar    1  UNL1        0.0158
     19 C          62.8322   86.7304   12.0637 C.ar    1  UNL1        0.0618
     20 O          66.5029   91.7722   12.2554 O.3     1  UNL1       -0.4350
     21 C          66.6899   93.0061   11.4234 C.ar    1  UNL1        0.1585
     22 C          66.1099   94.3125   11.8783 C.ar    1  UNL1        0.0498
     23 C          66.2970   95.5465   11.0463 C.ar    1  UNL1        0.0608
     24 CL         65.7170   96.8529   11.5013 Cl      1  UNL1       -0.0821
     25 C          67.0640   95.4741    9.7593 C.ar    1  UNL1        0.0125
     26 C          67.6441   94.1677    9.3043 C.ar    1  UNL1        0.0153
     27 C          67.4570   92.9337   10.1364 C.ar    1  UNL1        0.0922
     28 CL         68.0370   91.6273    9.6814 Cl      1  UNL1       -0.0791
@<TRIPOS>BOND
     1     7     8    1
     2     8     9    1
     3     9    10    1
     4    10    11    1
     5    11    12   am
     6    12    13    2
     7    12     1    1
     8     1     2   ar
     9     2     3   ar
    10     3     4   ar
    11     4     5   ar
    12     5     6   ar
    13     6    20    1
    14    20    21    1
    15    21    22   ar
    16    22    23   ar
    17    23    24    1
    18    23    25   ar
    19    25    26   ar
    20    26    27   ar
    21    27    28    1
    22    11    14    1
    23    14    15   ar
    24    15    16   ar
    25    16    17   ar
    26    17    18   ar
    27    18    19   ar
    28    19     8    1
    29     6     1   ar
    30    27    21   ar
    31    19    14   ar
@<TRIPOS>MOLECULE
*****
 28 31 0 0 0
SMALL
GASTEIGER

@<TRIPOS>ATOM
      1 C          62.2261   89.0722   12.2114 C.ar    1  UNL1        0.1264
      2 C          61.0789   89.7704   11.5431 C.ar    1  UNL1        0.1099
      3 N          60.1423   88.9989   10.6614 N.ar    1  UNL1       -0.2221
      4 C          60.3528   87.5292   10.4479 C.ar    1  UNL1        0.2016
      5 N          61.4999   86.8310   11.1161 N.ar    1  UNL1       -0.1889
      6 C          62.4365   87.6025   11.9979 C.ar    1  UNL1        0.2370
      7 C          66.5080   94.2561   10.7825 C.3     1  UNL1        0.1123
      8 N          65.6717   93.1530   11.3602 N.pl3   1  UNL1       -0.3031
      9 C          64.7351   92.3815   10.4784 C.3     1  UNL1        0.1128
     10 C          63.8987   91.2784   11.0561 C.3     1  UNL1        0.1199
     11 N          63.9990   90.9468   12.5155 N.am    1  UNL1       -0.2521
     12 C          63.1627   89.8437   13.0932 C.2     1  UNL1        0.2589
     13 O          63.2630   89.5121   14.5527 O.2     1  UNL1       -0.2693
     14 C          64.9357   91.7183   13.3973 C.ar    1  UNL1        0.0675
     15 C          65.0359   91.3867   14.8567 C.ar    1  UNL1        0.0162
     16 C          65.9725   92.1582   15.7385 C.ar    1  UNL1        0.0014
     17 C          66.8089   93.2613   15.1608 C.ar    1  UNL1        0.0014
     18 C          66.7086   93.5929   13.7014 C.ar    1  UNL1        0.0158
     19 C          65.7720   92.8214   12.8197 C.ar    1  UNL1        0.0618
     20 O          63.5836   86.9042   12.6662 O.3     1  UNL1       -0.4350
     21 C          63.4057   85.5153   13.2039 C.ar    1  UNL1        0.1585
     22 C          62.9979   84.4019   12.2851 C.ar    1  UNL1        0.0498
     23 C          62.8199   83.0129   12.8228 C.ar    1  UNL1        0.0608
     24 CL         62.4121   81.8995   11.9040 Cl      1  UNL1       -0.0821
     25 C          63.0497   82.7373   14.2792 C.ar    1  UNL1        0.0125
     26 C          63.4576   83.8507   15.1980 C.ar    1  UNL1        0.0153
     27 C          63.6355   85.2397   14.6603 C.ar    1  UNL1        0.0922
     28 CL         64.0434   86.3530   15.5791 Cl      1  UNL1       -0.0791
@<TRIPOS>BOND
     1     7     8    1
     2     8     9    1
     3     9    10    1
     4    10    11    1
     5    11    12   am
     6    12    13    2
     7    12     1    1
     8     1     2   ar
     9     2     3   ar
    10     3     4   ar
    11     4     5   ar
    12     5     6   ar
    13     6    20    1
    14    20    21    1
    15    21    22   ar
    16    22    23   ar
    17    23    24    1
    18    23    25   ar
    19    25    26   ar
    20    26    27   ar
    21    27    28    1
    22    11    14    1
    23    14    15   ar
    24    15    16   ar
    25    16    17   ar
    26    17    18   ar
    27    18    19   ar
    28    19     8    1
    29     6     1   ar
    30    27    21   ar
    31    19    14   ar
@<TRIPOS>MOLECULE
*****
 28 31 0 0 0
SMALL
GASTEIGER

@<TRIPOS>ATOM
      1 C          61.8403   89.1674   11.6942 C.ar    1  UNL1        0.1264
      2 C          60.7075   89.9604   11.1129 C.ar    1  UNL1        0.1099
      3 N          59.7488   89.3108   10.1596 N.ar    1  UNL1       -0.2221
      4 C          59.9229   87.8681    9.7875 C.ar    1  UNL1        0.2016
      5 N          61.0556   87.0751   10.3688 N.ar    1  UNL1       -0.1889
      6 C          62.0144   87.7247   11.3222 C.ar    1  UNL1        0.2370
      7 C          66.4549   94.1691   10.7256 C.3     1  UNL1        0.1123
      8 N          65.5409   93.0811   11.2060 N.pl3   1  UNL1       -0.3031
      9 C          64.5822   92.4315   10.2527 C.3     1  UNL1        0.1128
     10 C          63.6682   91.3434   10.7332 C.3     1  UNL1        0.1199
     11 N          63.7129   90.9051   12.1670 N.am    1  UNL1       -0.2521
     12 C          62.7990   89.8171   12.6475 C.2     1  UNL1        0.2589
     13 O          62.8437   89.3787   14.0814 O.2     1  UNL1       -0.2693
     14 C          64.6717   91.5547   13.1204 C.ar    1  UNL1        0.0675
     15 C          64.7164   91.1164   14.5542 C.ar    1  UNL1        0.0162
     16 C          65.6750   91.7660   15.5075 C.ar    1  UNL1        0.0014
     17 C          66.5890   92.8541   15.0270 C.ar    1  UNL1        0.0014
     18 C          66.5443   93.2924   13.5932 C.ar    1  UNL1        0.0158
     19 C          65.5856   92.6428   12.6399 C.ar    1  UNL1        0.0618
     20 O          63.1471   86.9317   11.9035 O.3     1  UNL1       -0.4350
     21 C          62.9707   85.4695   12.1879 C.ar    1  UNL1        0.1585
     22 C          62.7832   84.9972   13.5991 C.ar    1  UNL1        0.0498
     23 C          62.6068   83.5351   13.8835 C.ar    1  UNL1        0.0608
     24 CL         62.4192   83.0628   15.2949 Cl      1  UNL1       -0.0821
     25 C          62.6179   82.5451   12.7566 C.ar    1  UNL1        0.0125
     26 C          62.8054   83.0174   11.3453 C.ar    1  UNL1        0.0153
     27 C          62.9818   84.4796   11.0609 C.ar    1  UNL1        0.0922
     28 CL         63.1693   84.9519    9.6496 Cl      1  UNL1       -0.0791
@<TRIPOS>BOND
     1     7     8    1
     2     8     9    1
     3     9    10    1
     4    10    11    1
     5    11    12   am
     6    12    13    2
     7    12     1    1
     8     1     2   ar
     9     2     3   ar
    10     3     4   ar
    11     4     5   ar
    12     5     6   ar
    13     6    20    1
    14    20    21    1
    15    21    22   ar
    16    22    23   ar
    17    23    24    1
    18    23    25   ar
    19    25    26   ar
    20    26    27   ar
    21    27    28    1
    22    11    14    1
    23    14    15   ar
    24    15    16   ar
    25    16    17   ar
    26    17    18   ar
    27    18    19   ar
    28    19     8    1
    29     6     1   ar
    30    27    21   ar
    31    19    14   ar
@<TRIPOS>MOLECULE
*****
 28 31 0 0 0
SMALL
GASTEIGER

@<TRIPOS>ATOM
      1 C          61.5558   89.6877   11.6002 C.ar    1  UNL1        0.1264
      2 C          60.6840   90.6897   10.9029 C.ar    1  UNL1        0.1099
      3 N          59.6496   90.2283    9.9197 N.ar    1  UNL1       -0.2221
      4 C          59.4868   88.7648    9.6336 C.ar    1  UNL1        0.2016
      5 N          60.3585   87.7629   10.3308 N.ar    1  UNL1       -0.1889
      6 C          61.3930   88.2243   11.3141 C.ar    1  UNL1        0.2370
      7 C          66.9264   93.9090   10.8336 C.3     1  UNL1        0.1123
      8 N          65.8423   92.9691   11.2711 N.pl3   1  UNL1       -0.3031
      9 C          64.8079   92.5076   10.2878 C.3     1  UNL1        0.1128
     10 C          63.7239   91.5677   10.7253 C.3     1  UNL1        0.1199
     11 N          63.6743   91.0892   12.1460 N.am    1  UNL1       -0.2521
     12 C          62.5903   90.1492   12.5835 C.2     1  UNL1        0.2589
     13 O          62.5408   89.6707   14.0043 O.2     1  UNL1       -0.2693
     14 C          64.7088   91.5506   13.1294 C.ar    1  UNL1        0.0675
     15 C          64.6592   91.0721   14.5501 C.ar    1  UNL1        0.0162
     16 C          65.6937   91.5336   15.5334 C.ar    1  UNL1        0.0014
     17 C          66.7777   92.4736   15.0959 C.ar    1  UNL1        0.0014
     18 C          66.8273   92.9521   13.6752 C.ar    1  UNL1        0.0158
     19 C          65.7928   92.4906   12.6919 C.ar    1  UNL1        0.0618
     20 O          62.2647   87.2223   12.0113 O.3     1  UNL1       -0.4350
     21 C          62.7122   85.9862   11.2890 C.ar    1  UNL1        0.1585
     22 C          62.6455   85.9269    9.7917 C.ar    1  UNL1        0.0498
     23 C          63.0929   84.6907    9.0693 C.ar    1  UNL1        0.0608
     24 CL         63.0261   84.6315    7.5720 Cl      1  UNL1       -0.0821
     25 C          63.6070   83.5139    9.8443 C.ar    1  UNL1        0.0125
     26 C          63.6738   83.5732   11.3417 C.ar    1  UNL1        0.0153
     27 C          63.2263   84.8093   12.0641 C.ar    1  UNL1        0.0922
     28 CL         63.2930   84.8686   13.5614 Cl      1  UNL1       -0.0791
@<TRIPOS>BOND
     1     7     8    1
     2     8     9    1
     3     9    10    1
     4    10    11    1
     5    11    12   am
     6    12    13    2
     7    12     1    1
     8     1     2   ar
     9     2     3   ar
    10     3     4   ar
    11     4     5   ar
    12     5     6   ar
    13     6    20    1
    14    20    21    1
    15    21    22   ar
    16    22    23   ar
    17    23    24    1
    18    23    25   ar
    19    25    26   ar
    20    26    27   ar
    21    27    28    1
    22    11    14    1
    23    14    15   ar
    24    15    16   ar
    25    16    17   ar
    26    17    18   ar
    27    18    19   ar
    28    19     8    1
    29     6     1   ar
    30    27    21   ar
    31    19    14   ar
@<TRIPOS>MOLECULE
*****
 28 31 0 0 0
SMALL
GASTEIGER

@<TRIPOS>ATOM
      1 C          61.9029   88.1391   11.2000 C.ar    1  UNL1        0.1264
      2 C          60.7224   88.8812   10.6470 C.ar    1  UNL1        0.1099
      3 N          59.8016   88.2071    9.6735 N.ar    1  UNL1       -0.2221
      4 C          60.0613   86.7909    9.2529 C.ar    1  UNL1        0.2016
      5 N          61.2418   86.0488    9.8058 N.ar    1  UNL1       -0.1889
      6 C          62.1626   86.7229   10.7793 C.ar    1  UNL1        0.2370
      7 C          65.5101   93.9678   10.6858 C.3     1  UNL1        0.1123
      8 N          64.8385   92.6791   11.0577 N.pl3   1  UNL1       -0.3031
      9 C          63.9178   92.0050   10.0842 C.3     1  UNL1        0.1128
     10 C          63.2461   90.7164   10.4561 C.3     1  UNL1        0.1199
     11 N          63.4953   90.1018   11.8016 N.am    1  UNL1       -0.2521
     12 C          62.8236   88.8132   12.1735 C.2     1  UNL1        0.2589
     13 O          63.0728   88.1986   13.5190 O.2     1  UNL1       -0.2693
     14 C          64.4160   90.7759   12.7752 C.ar    1  UNL1        0.0675
     15 C          64.6652   90.1614   14.1206 C.ar    1  UNL1        0.0162
     16 C          65.5859   90.8355   15.0941 C.ar    1  UNL1        0.0014
     17 C          66.2575   92.1241   14.7222 C.ar    1  UNL1        0.0014
     18 C          66.0084   92.7387   13.3768 C.ar    1  UNL1        0.0158
     19 C          65.0877   92.0646   12.4032 C.ar    1  UNL1        0.0618
     20 O          63.3431   85.9808   11.3322 O.3     1  UNL1       -0.4350
     21 C          63.1532   84.6341   11.9649 C.ar    1  UNL1        0.1585
     22 C          62.7950   84.5318   13.4178 C.ar    1  UNL1        0.0498
     23 C          62.6050   83.1850   14.0505 C.ar    1  UNL1        0.0608
     24 CL         62.2468   83.0828   15.5035 Cl      1  UNL1       -0.0821
     25 C          62.7733   81.9406   13.2302 C.ar    1  UNL1        0.0125
     26 C          63.1315   82.0428   11.7771 C.ar    1  UNL1        0.0153
     27 C          63.3215   83.3896   11.1445 C.ar    1  UNL1        0.0922
     28 CL         63.6797   83.4919    9.6915 Cl      1  UNL1       -0.0791
@<TRIPOS>BOND
     1     7     8    1
     2     8     9    1
     3     9    10    1
     4    10    11    1
     5    11    12   am
     6    12    13    2
     7    12     1    1
     8     1     2   ar
     9     2     3   ar
    10     3     4   ar
    11     4     5   ar
    12     5     6   ar
    13     6    20    1
    14    20    21    1
    15    21    22   ar
    16    22    23   ar
    17    23    24    1
    18    23    25   ar
    19    25    26   ar
    20    26    27   ar
    21    27    28    1
    22    11    14    1
    23    14    15   ar
    24    15    16   ar
    25    16    17   ar
    26    17    18   ar
    27    18    19   ar
    28    19     8    1
    29     6     1   ar
    30    27    21   ar
    31    19    14   ar
@<TRIPOS>MOLECULE
*****
 28 31 0 0 0
SMALL
GASTEIGER

@<TRIPOS>ATOM
      1 C          61.3624   90.1082   11.3983 C.ar    1  UNL1        0.1264
      2 C          60.0601   90.8286   11.5856 C.ar    1  UNL1        0.1099
      3 N          58.8091   90.0534   11.8755 N.ar    1  UNL1       -0.2221
      4 C          58.8604   88.5578   11.9781 C.ar    1  UNL1        0.2016
      5 N          60.1626   87.8374   11.7908 N.ar    1  UNL1       -0.1889
      6 C          61.4137   88.6126   11.5009 C.ar    1  UNL1        0.2370
      7 C          66.5060   92.0571   15.5209 C.3     1  UNL1        0.1123
      8 N          65.5328   91.7637   14.4177 N.pl3   1  UNL1       -0.3031
      9 C          64.2818   90.9885   14.7077 C.3     1  UNL1        0.1128
     10 C          63.3087   90.6950   13.6045 C.3     1  UNL1        0.1199
     11 N          63.5865   91.1768   12.2115 N.am    1  UNL1       -0.2521
     12 C          62.6134   90.8834   11.1083 C.2     1  UNL1        0.2589
     13 O          62.8913   91.3653    9.7152 O.2     1  UNL1       -0.2693
     14 C          64.8375   91.9521   11.9215 C.ar    1  UNL1        0.0675
     15 C          65.1154   92.4339   10.5284 C.ar    1  UNL1        0.0162
     16 C          66.3663   93.2091   10.2385 C.ar    1  UNL1        0.0014
     17 C          67.3395   93.5025   11.3417 C.ar    1  UNL1        0.0014
     18 C          67.0617   93.0207   12.7347 C.ar    1  UNL1        0.0158
     19 C          65.8107   92.2455   13.0246 C.ar    1  UNL1        0.0618
     20 O          62.7159   87.8922   11.3136 O.3     1  UNL1       -0.4350
     21 C          62.8695   86.4817   11.8003 C.ar    1  UNL1        0.1585
     22 C          63.3989   86.2173   13.1786 C.ar    1  UNL1        0.0498
     23 C          63.5524   84.8068   13.6653 C.ar    1  UNL1        0.0608
     24 CL         64.0818   84.5425   15.0437 Cl      1  UNL1       -0.0821
     25 C          63.1767   83.6607   12.7736 C.ar    1  UNL1        0.0125
     26 C          62.6473   83.9250   11.3952 C.ar    1  UNL1        0.0153
     27 C          62.4937   85.3355   10.9085 C.ar    1  UNL1        0.0922
     28 CL         61.9644   85.5999    9.5302 Cl      1  UNL1       -0.0791
@<TRIPOS>BOND
     1     7     8    1
     2     8     9    1
     3     9    10    1
     4    10    11    1
     5    11    12   am
     6    12    13    2
     7    12     1    1
     8     1     2   ar
     9     2     3   ar
    10     3     4   ar
    11     4     5   ar
    12     5     6   ar
    13     6    20    1
    14    20    21    1
    15    21    22   ar
    16    22    23   ar
    17    23    24    1
    18    23    25   ar
    19    25    26   ar
    20    26    27   ar
    21    27    28    1
    22    11    14    1
    23    14    15   ar
    24    15    16   ar
    25    16    17   ar
    26    17    18   ar
    27    18    19   ar
    28    19     8    1
    29     6     1   ar
    30    27    21   ar
    31    19    14   ar
@<TRIPOS>MOLECULE
*****
 28 31 0 0 0
SMALL
GASTEIGER

@<TRIPOS>ATOM
      1 C          63.5417   88.4388   15.1464 C.ar    1  UNL1        0.1264
      2 C          63.0520   88.9866   16.4541 C.ar    1  UNL1        0.1099
      3 N          62.8491   88.0686   17.6229 N.ar    1  UNL1       -0.2221
      4 C          63.1358   86.6029   17.4841 C.ar    1  UNL1        0.2016
      5 N          63.6255   86.0550   16.1764 N.ar    1  UNL1       -0.1889
      6 C          63.8285   86.9730   15.0075 C.ar    1  UNL1        0.2370
      7 C          67.3160   94.1484   14.5107 C.3     1  UNL1        0.1123
      8 N          66.4232   92.9505   14.3774 N.pl3   1  UNL1       -0.3031
      9 C          66.2203   92.0325   15.5462 C.3     1  UNL1        0.1128
     10 C          65.3274   90.8346   15.4129 C.3     1  UNL1        0.1199
     11 N          64.6374   90.5547   14.1109 N.am    1  UNL1       -0.2521
     12 C          63.7446   89.3567   13.9776 C.2     1  UNL1        0.2589
     13 O          63.0546   89.0768   12.6754 O.2     1  UNL1       -0.2693
     14 C          64.8403   91.4726   12.9420 C.ar    1  UNL1        0.0675
     15 C          64.1503   91.1927   11.6399 C.ar    1  UNL1        0.0162
     16 C          64.3532   92.1106   10.4711 C.ar    1  UNL1        0.0014
     17 C          65.2461   93.3085   10.6044 C.ar    1  UNL1        0.0014
     18 C          65.9361   93.5885   11.9065 C.ar    1  UNL1        0.0158
     19 C          65.7332   92.6706   13.0753 C.ar    1  UNL1        0.0618
     20 O          64.3181   86.4252   13.6998 O.3     1  UNL1       -0.4350
     21 C          63.7660   85.1335   13.1739 C.ar    1  UNL1        0.1585
     22 C          64.1544   83.8349   13.8164 C.ar    1  UNL1        0.0498
     23 C          63.6023   82.5432   13.2905 C.ar    1  UNL1        0.0608
     24 CL         63.9908   81.2446   13.9331 Cl      1  UNL1       -0.0821
     25 C          62.6618   82.5500   12.1220 C.ar    1  UNL1        0.0125
     26 C          62.2733   83.8486   11.4795 C.ar    1  UNL1        0.0153
     27 C          62.8254   85.1403   12.0054 C.ar    1  UNL1        0.0922
     28 CL         62.4370   86.4389   11.3629 Cl      1  UNL1       -0.0791
@<TRIPOS>BOND
     1     7     8    1
     2     8     9    1
     3     9    10    1
     4    10    11    1
     5    11    12   am
     6    12    13    2
     7    12     1    1
     8     1     2   ar
     9     2     3   ar
    10     3     4   ar
    11     4     5   ar
    12     5     6   ar
    13     6    20    1
    14    20    21    1
    15    21    22   ar
    16    22    23   ar
    17    23    24    1
    18    23    25   ar
    19    25    26   ar
    20    26    27   ar
    21    27    28    1
    22    11    14    1
    23    14    15   ar
    24    15    16   ar
    25    16    17   ar
    26    17    18   ar
    27    18    19   ar
    28    19     8    1
    29     6     1   ar
    30    27    21   ar
    31    19    14   ar
@<TRIPOS>MOLECULE
*****
 28 31 0 0 0
SMALL
GASTEIGER

@<TRIPOS>ATOM
      1 C          61.4305   90.0229   11.4087 C.ar    1  UNL1        0.1264
      2 C          60.1141   90.7302   11.5386 C.ar    1  UNL1        0.1099
      3 N          58.8642   89.9453   11.8065 N.ar    1  UNL1       -0.2221
      4 C          58.9307   88.4532   11.9445 C.ar    1  UNL1        0.2016
      5 N          60.2470   87.7459   11.8146 N.ar    1  UNL1       -0.1889
      6 C          61.4970   88.5307   11.5467 C.ar    1  UNL1        0.2370
      7 C          66.3319   92.2725   15.6708 C.3     1  UNL1        0.1123
      8 N          65.4190   91.9063   14.5383 N.pl3   1  UNL1       -0.3031
      9 C          64.1691   91.1215   14.8062 C.3     1  UNL1        0.1128
     10 C          63.2563   90.7553   13.6737 C.3     1  UNL1        0.1199
     11 N          63.5933   91.1739   12.2733 N.am    1  UNL1       -0.2521
     12 C          62.6804   90.8077   11.1408 C.2     1  UNL1        0.2589
     13 O          63.0174   91.2264    9.7404 O.2     1  UNL1       -0.2693
     14 C          64.8432   91.9588   12.0054 C.ar    1  UNL1        0.0675
     15 C          65.1802   92.3775   10.6050 C.ar    1  UNL1        0.0162
     16 C          66.4300   93.1623   10.3371 C.ar    1  UNL1        0.0014
     17 C          67.3429   93.5285   11.4696 C.ar    1  UNL1        0.0014
     18 C          67.0059   93.1099   12.8700 C.ar    1  UNL1        0.0158
     19 C          65.7560   92.3250   13.1379 C.ar    1  UNL1        0.0618
     20 O          62.8133   87.8234   11.4168 O.3     1  UNL1       -0.4350
     21 C          63.0378   86.5204   12.1252 C.ar    1  UNL1        0.1585
     22 C          62.5925   85.2358   11.4916 C.ar    1  UNL1        0.0498
     23 C          62.8169   83.9328   12.2000 C.ar    1  UNL1        0.0608
     24 CL         62.3716   82.6482   11.5663 Cl      1  UNL1       -0.0821
     25 C          63.4866   83.9145   13.5421 C.ar    1  UNL1        0.0125
     26 C          63.9319   85.1991   14.1757 C.ar    1  UNL1        0.0153
     27 C          63.7075   86.5021   13.4673 C.ar    1  UNL1        0.0922
     28 CL         64.1528   87.7867   14.1009 Cl      1  UNL1       -0.0791
@<TRIPOS>BOND
     1     7     8    1
     2     8     9    1
     3     9    10    1
     4    10    11    1
     5    11    12   am
     6    12    13    2
     7    12     1    1
     8     1     2   ar
     9     2     3   ar
    10     3     4   ar
    11     4     5   ar
    12     5     6   ar
    13     6    20    1
    14    20    21    1
    15    21    22   ar
    16    22    23   ar
    17    23    24    1
    18    23    25   ar
    19    25    26   ar
    20    26    27   ar
    21    27    28    1
    22    11    14    1
    23    14    15   ar
    24    15    16   ar
    25    16    17   ar
    26    17    18   ar
    27    18    19   ar
    28    19     8    1
    29     6     1   ar
    30    27    21   ar
    31    19    14   ar
