@<TRIPOS>MOLECULE
*****
 23 23 0 0 0
SMALL
GASTEIGER

@<TRIPOS>ATOM
      1 C          62.9889   81.8159   12.0074 C.3     1  UNL1        0.0693
      2 C          62.8462   81.5894   13.4833 C.2     1  UNL1        0.1534
      3 O          63.5849   80.4635   14.1442 O.2     1  UNL1       -0.2960
      4 C          61.9647   82.4887   14.2984 C.3     1  UNL1        0.0937
      5 C          62.5495   83.6819   14.9944 C.3     1  UNL1        0.1179
      6 O          61.6537   84.7895   15.4645 O.3     1  UNL1       -0.3840
      7 H          60.7337   84.5781   15.2413 H       1  UNL1        0.2104
      8 C          64.0299   83.7676   15.2202 C.3     1  UNL1        0.0297
      9 C          64.8415   84.7967   14.4908 C.3     1  UNL1        0.0025
     10 C          64.8671   86.2151   14.9782 C.3     1  UNL1        0.0001
     11 C          64.2850   88.7225   14.6255 C.3     1  UNL1        0.0000
     12 C          64.1746   87.2902   14.1941 C.3     1  UNL1        0.0000
     13 C          63.8076   82.9660   11.5009 C.3     1  UNL1        0.0342
     14 C          63.1365   84.1223   10.8207 C.ar    1  UNL1       -0.0185
     15 C          63.3755   84.3758    9.3618 C.ar    1  UNL1       -0.0009
     16 C          62.7044   85.5321    8.6816 C.ar    1  UNL1        0.0397
     17 C          61.7943   86.4349    9.4604 C.ar    1  UNL1        0.1721
     18 C          61.5554   86.1815   10.9194 C.ar    1  UNL1        0.1674
     19 O          60.6452   87.0843   11.6983 O.3     1  UNL1       -0.5029
     20 C          62.2265   85.0252   11.5995 C.ar    1  UNL1        0.0355
     21 H          60.2260   87.8066   11.2734 H       1  UNL1        0.2923
     22 O          61.1232   87.5912    8.7803 O.3     1  UNL1       -0.4684
     23 C          59.7112   87.4575    8.2922 C.3     1  UNL1        0.2526
@<TRIPOS>BOND
     1    11    12    1
     2    12    10    1
     3    10     9    1
     4     9     8    1
     5     8     5    1
     6     5     6    1
     7     5     4    1
     8     4     2    1
     9     2     3    2
    10     2     1    1
    11     1    13    1
    12    13    14    1
    13    14    15   ar
    14    15    16   ar
    15    16    17   ar
    16    17    22    1
    17    22    23    1
    18    17    18   ar
    19    18    19    1
    20    18    20   ar
    21    20    14   ar
    22     6     7    1
    23    19    21    1
@<TRIPOS>MOLECULE
*****
 23 23 0 0 0
SMALL
GASTEIGER

@<TRIPOS>ATOM
      1 C          60.9352   86.0150    8.3222 C.3     1  UNL1        0.0693
      2 C          59.9392   87.1268    8.4707 C.2     1  UNL1        0.1534
      3 O          58.4865   86.8740    8.1961 O.2     1  UNL1       -0.2960
      4 C          60.3962   88.4915    8.8939 C.3     1  UNL1        0.0937
      5 C          60.4110   88.8600   10.3479 C.3     1  UNL1        0.1179
      6 O          59.8952   87.8930   11.3720 O.3     1  UNL1       -0.3840
      7 H          59.5919   87.0847   10.9297 H       1  UNL1        0.2104
      8 C          60.9418   90.1955   10.7777 C.3     1  UNL1        0.0297
      9 C          62.4125   90.3793   11.0080 C.3     1  UNL1        0.0025
     10 C          62.9731   90.2760   12.3955 C.3     1  UNL1        0.0001
     11 C          64.2521   88.9081   14.1963 C.3     1  UNL1        0.0000
     12 C          63.5236   88.9699   12.8866 C.3     1  UNL1        0.0000
     13 C          62.3088   86.1553    8.9082 C.3     1  UNL1        0.0342
     14 C          62.7482   85.2443   10.0159 C.ar    1  UNL1       -0.0185
     15 C          63.5533   84.0179    9.7035 C.ar    1  UNL1       -0.0009
     16 C          63.9927   83.1069   10.8112 C.ar    1  UNL1        0.0397
     17 C          63.6271   83.4223   12.2313 C.ar    1  UNL1        0.1721
     18 C          62.8220   84.6487   12.5437 C.ar    1  UNL1        0.1674
     19 O          62.4563   84.9642   13.9639 O.3     1  UNL1       -0.5029
     20 C          62.3826   85.5597   11.4360 C.ar    1  UNL1        0.0355
     21 H          62.7308   84.3952   14.6558 H       1  UNL1        0.2923
     22 O          64.0665   82.5113   13.3390 O.3     1  UNL1       -0.4684
     23 C          63.5862   81.0909   13.3770 C.3     1  UNL1        0.2526
@<TRIPOS>BOND
     1    11    12    1
     2    12    10    1
     3    10     9    1
     4     9     8    1
     5     8     5    1
     6     5     6    1
     7     5     4    1
     8     4     2    1
     9     2     3    2
    10     2     1    1
    11     1    13    1
    12    13    14    1
    13    14    15   ar
    14    15    16   ar
    15    16    17   ar
    16    17    22    1
    17    22    23    1
    18    17    18   ar
    19    18    19    1
    20    18    20   ar
    21    20    14   ar
    22     6     7    1
    23    19    21    1
@<TRIPOS>MOLECULE
*****
 23 23 0 0 0
SMALL
GASTEIGER

@<TRIPOS>ATOM
      1 C          64.2939   88.2870   14.2511 C.3     1  UNL1        0.0693
      2 C          64.0442   87.1335   15.1769 C.2     1  UNL1        0.1534
      3 O          63.2685   87.3427   16.4435 O.2     1  UNL1       -0.2960
      4 C          64.5702   85.7707   14.8359 C.3     1  UNL1        0.0937
      5 C          63.6325   84.6026   14.7585 C.3     1  UNL1        0.1179
      6 O          62.2363   84.7249   15.2933 O.3     1  UNL1       -0.3840
      7 H          62.1042   85.6168   15.6512 H       1  UNL1        0.2104
      8 C          64.0908   83.3121   14.1465 C.3     1  UNL1        0.0297
      9 C          63.8344   83.0381   12.6942 C.3     1  UNL1        0.0025
     10 C          62.6749   82.1782   12.2865 C.3     1  UNL1        0.0001
     11 C          61.1602   81.0038   14.0404 C.3     1  UNL1        0.0000
     12 C          62.3221   80.9634   13.0927 C.3     1  UNL1        0.0000
     13 C          64.2796   89.6904   14.7806 C.3     1  UNL1        0.0342
     14 C          64.9583   90.7876   14.0156 C.ar    1  UNL1       -0.0185
     15 C          64.3507   91.3025   12.7445 C.ar    1  UNL1       -0.0009
     16 C          65.0295   92.3998   11.9794 C.ar    1  UNL1        0.0397
     17 C          66.3158   92.9822   12.4854 C.ar    1  UNL1        0.1721
     18 C          66.9234   92.4673   13.7565 C.ar    1  UNL1        0.1674
     19 O          68.2098   93.0497   14.2626 O.3     1  UNL1       -0.5029
     20 C          66.2447   91.3700   14.5216 C.ar    1  UNL1        0.0355
     21 H          68.6338   93.7351   13.7847 H       1  UNL1        0.2923
     22 O          66.9945   94.0794   11.7204 O.3     1  UNL1       -0.4684
     23 C          66.3441   94.6541   10.4971 C.3     1  UNL1        0.2526
@<TRIPOS>BOND
     1    11    12    1
     2    12    10    1
     3    10     9    1
     4     9     8    1
     5     8     5    1
     6     5     6    1
     7     5     4    1
     8     4     2    1
     9     2     3    2
    10     2     1    1
    11     1    13    1
    12    13    14    1
    13    14    15   ar
    14    15    16   ar
    15    16    17   ar
    16    17    22    1
    17    22    23    1
    18    17    18   ar
    19    18    19    1
    20    18    20   ar
    21    20    14   ar
    22     6     7    1
    23    19    21    1
@<TRIPOS>MOLECULE
*****
 23 23 0 0 0
SMALL
GASTEIGER

@<TRIPOS>ATOM
      1 C          62.2515   89.4191   10.2679 C.3     1  UNL1        0.0693
      2 C          60.7802   89.2063   10.0678 C.2     1  UNL1        0.1534
      3 O          59.8589   89.1773   11.2511 O.2     1  UNL1       -0.2960
      4 C          60.2303   89.0225    8.6843 C.3     1  UNL1        0.0937
      5 C          59.6284   87.7079    8.2850 C.3     1  UNL1        0.1179
      6 O          58.4208   87.6752    7.3957 O.3     1  UNL1       -0.3840
      7 H          58.1593   88.5821    7.1721 H       1  UNL1        0.2104
      8 C          60.2339   86.4260    8.7750 C.3     1  UNL1        0.0297
      9 C          61.6841   86.1371    8.5229 C.3     1  UNL1        0.0025
     10 C          62.5612   85.6665    9.6451 C.3     1  UNL1        0.0001
     11 C          62.6466   84.8950   12.1245 C.3     1  UNL1        0.0000
     12 C          62.1014   85.8073   11.0659 C.3     1  UNL1        0.0000
     13 C          62.8280   90.8012   10.1820 C.3     1  UNL1        0.0342
     14 C          63.8140   91.2679   11.2115 C.ar    1  UNL1       -0.0185
     15 C          63.7098   90.7790   12.6257 C.ar    1  UNL1       -0.0009
     16 C          64.6959   91.2457   13.6552 C.ar    1  UNL1        0.0397
     17 C          65.7862   92.2013   13.2704 C.ar    1  UNL1        0.1721
     18 C          65.8904   92.6902   11.8562 C.ar    1  UNL1        0.1674
     19 O          66.9807   93.6458   11.4714 O.3     1  UNL1       -0.5029
     20 C          64.9043   92.2235   10.8267 C.ar    1  UNL1        0.0355
     21 H          67.5967   93.9374   12.1145 H       1  UNL1        0.2923
     22 O          66.7722   92.6680   14.2999 O.3     1  UNL1       -0.4684
     23 C          67.6053   91.6694   15.0475 C.3     1  UNL1        0.2526
@<TRIPOS>BOND
     1    11    12    1
     2    12    10    1
     3    10     9    1
     4     9     8    1
     5     8     5    1
     6     5     6    1
     7     5     4    1
     8     4     2    1
     9     2     3    2
    10     2     1    1
    11     1    13    1
    12    13    14    1
    13    14    15   ar
    14    15    16   ar
    15    16    17   ar
    16    17    22    1
    17    22    23    1
    18    17    18   ar
    19    18    19    1
    20    18    20   ar
    21    20    14   ar
    22     6     7    1
    23    19    21    1
@<TRIPOS>MOLECULE
*****
 23 23 0 0 0
SMALL
GASTEIGER

@<TRIPOS>ATOM
      1 C          64.6652   87.1755   14.9725 C.3     1  UNL1        0.0693
      2 C          63.9120   88.4141   14.5870 C.2     1  UNL1        0.1534
      3 O          63.2355   89.2391   15.6414 O.2     1  UNL1       -0.2960
      4 C          63.8353   88.8276   13.1472 C.3     1  UNL1        0.0937
      5 C          63.2406   90.1545   12.7787 C.3     1  UNL1        0.1179
      6 O          63.1198   91.2352   13.8119 O.3     1  UNL1       -0.3840
      7 H          63.4700   90.9144   14.6577 H       1  UNL1        0.2104
      8 C          62.7666   90.4006   11.3770 C.3     1  UNL1        0.0297
      9 C          61.7258   89.5076   10.7695 C.3     1  UNL1        0.0025
     10 C          62.1407   88.3262    9.9434 C.3     1  UNL1        0.0001
     11 C          62.0937   86.1121   11.3020 C.3     1  UNL1        0.0000
     12 C          61.5403   86.9775   10.2089 C.3     1  UNL1        0.0000
     13 C          63.9458   86.0330   15.6260 C.3     1  UNL1        0.0342
     14 C          63.6783   84.7751   14.8541 C.ar    1  UNL1       -0.0185
     15 C          62.5730   83.8547   15.2795 C.ar    1  UNL1       -0.0009
     16 C          62.3055   82.5967   14.5075 C.ar    1  UNL1        0.0397
     17 C          63.1434   82.2591   13.3101 C.ar    1  UNL1        0.1721
     18 C          64.2488   83.1795   12.8847 C.ar    1  UNL1        0.1674
     19 O          65.0868   82.8419   11.6872 O.3     1  UNL1       -0.5029
     20 C          64.5163   84.4374   13.6567 C.ar    1  UNL1        0.0355
     21 H          64.9198   82.0561   11.2049 H       1  UNL1        0.2923
     22 O          62.8760   81.0011   12.5381 O.3     1  UNL1       -0.4684
     23 C          62.2468   79.8224   13.2196 C.3     1  UNL1        0.2526
@<TRIPOS>BOND
     1    11    12    1
     2    12    10    1
     3    10     9    1
     4     9     8    1
     5     8     5    1
     6     5     6    1
     7     5     4    1
     8     4     2    1
     9     2     3    2
    10     2     1    1
    11     1    13    1
    12    13    14    1
    13    14    15   ar
    14    15    16   ar
    15    16    17   ar
    16    17    22    1
    17    22    23    1
    18    17    18   ar
    19    18    19    1
    20    18    20   ar
    21    20    14   ar
    22     6     7    1
    23    19    21    1
@<TRIPOS>MOLECULE
*****
 23 23 0 0 0
SMALL
GASTEIGER

@<TRIPOS>ATOM
      1 C          62.5348   88.6735   11.1553 C.3     1  UNL1        0.0693
      2 C          61.3070   87.8140   11.0953 C.2     1  UNL1        0.1534
      3 O          61.3394   86.4201   11.6485 O.2     1  UNL1       -0.2960
      4 C          60.0466   88.3484   10.4821 C.3     1  UNL1        0.0937
      5 C          59.8451   88.2747    8.9975 C.3     1  UNL1        0.1179
      6 O          60.1972   89.4494    8.1336 O.3     1  UNL1       -0.3840
      7 H          60.5388   90.1680    8.6884 H       1  UNL1        0.2104
      8 C          59.2916   87.0264    8.3768 C.3     1  UNL1        0.0297
      9 C          60.2005   86.0896    7.6378 C.3     1  UNL1        0.0025
     10 C          61.5888   85.8351    8.1457 C.3     1  UNL1        0.0001
     11 C          62.0875   84.3785    6.0529 C.3     1  UNL1        0.0000
     12 C          62.5340   84.9839    7.3506 C.3     1  UNL1        0.0000
     13 C          62.7053   89.6609   12.2715 C.3     1  UNL1        0.0342
     14 C          63.7150   90.7635   12.1498 C.ar    1  UNL1       -0.0185
     15 C          63.9326   91.4387   10.8281 C.ar    1  UNL1       -0.0009
     16 C          64.9423   92.5413   10.7064 C.ar    1  UNL1        0.0397
     17 C          65.7344   92.9687   11.9063 C.ar    1  UNL1        0.1721
     18 C          65.5168   92.2936   13.2279 C.ar    1  UNL1        0.1674
     19 O          66.3089   92.7210   14.4279 O.3     1  UNL1       -0.5029
     20 C          64.5071   91.1910   13.3497 C.ar    1  UNL1        0.0355
     21 H          66.9396   93.4098   14.3519 H       1  UNL1        0.2923
     22 O          66.7440   94.0713   11.7846 O.3     1  UNL1       -0.4684
     23 C          66.4065   95.3162   11.0190 C.3     1  UNL1        0.2526
@<TRIPOS>BOND
     1    11    12    1
     2    12    10    1
     3    10     9    1
     4     9     8    1
     5     8     5    1
     6     5     6    1
     7     5     4    1
     8     4     2    1
     9     2     3    2
    10     2     1    1
    11     1    13    1
    12    13    14    1
    13    14    15   ar
    14    15    16   ar
    15    16    17   ar
    16    17    22    1
    17    22    23    1
    18    17    18   ar
    19    18    19    1
    20    18    20   ar
    21    20    14   ar
    22     6     7    1
    23    19    21    1
@<TRIPOS>MOLECULE
*****
 23 23 0 0 0
SMALL
GASTEIGER

@<TRIPOS>ATOM
      1 C          64.3970   88.8804   15.0210 C.3     1  UNL1        0.0693
      2 C          64.0744   87.7113   14.1383 C.2     1  UNL1        0.1534
      3 O          63.4905   87.9391   12.7755 O.2     1  UNL1       -0.2960
      4 C          64.3356   86.3144   14.6184 C.3     1  UNL1        0.0937
      5 C          63.8131   85.1437   13.8397 C.3     1  UNL1        0.1179
      6 O          62.5725   85.2889   13.0091 O.3     1  UNL1       -0.3840
      7 H          62.2362   86.1955   13.0859 H       1  UNL1        0.2104
      8 C          64.5312   83.8278   13.8915 C.3     1  UNL1        0.0297
      9 C          63.7497   82.5480   13.9324 C.3     1  UNL1        0.0025
     10 C          63.7441   81.6343   12.7428 C.3     1  UNL1        0.0001
     11 C          64.1103   82.7626   10.4313 C.3     1  UNL1        0.0000
     12 C          63.1985   82.1147   11.4307 C.3     1  UNL1        0.0000
     13 C          63.9769   90.2628   14.6181 C.3     1  UNL1        0.0342
     14 C          64.8406   91.0699   13.6947 C.ar    1  UNL1       -0.0185
     15 C          66.2522   91.3970   14.0825 C.ar    1  UNL1       -0.0009
     16 C          67.1158   92.2041   13.1591 C.ar    1  UNL1        0.0397
     17 C          66.5679   92.6842   11.8480 C.ar    1  UNL1        0.1721
     18 C          65.1563   92.3572   11.4602 C.ar    1  UNL1        0.1674
     19 O          64.6083   92.8373   10.1490 O.3     1  UNL1       -0.5029
     20 C          64.2926   91.5501   12.3836 C.ar    1  UNL1        0.0355
     21 H          65.1478   93.3415    9.5721 H       1  UNL1        0.2923
     22 O          67.4315   93.4914   10.9246 O.3     1  UNL1       -0.4684
     23 C          68.0235   92.8539    9.7027 C.3     1  UNL1        0.2526
@<TRIPOS>BOND
     1    11    12    1
     2    12    10    1
     3    10     9    1
     4     9     8    1
     5     8     5    1
     6     5     6    1
     7     5     4    1
     8     4     2    1
     9     2     3    2
    10     2     1    1
    11     1    13    1
    12    13    14    1
    13    14    15   ar
    14    15    16   ar
    15    16    17   ar
    16    17    22    1
    17    22    23    1
    18    17    18   ar
    19    18    19    1
    20    18    20   ar
    21    20    14   ar
    22     6     7    1
    23    19    21    1
@<TRIPOS>MOLECULE
*****
 23 23 0 0 0
SMALL
GASTEIGER

@<TRIPOS>ATOM
      1 C          60.6994   86.3691    8.6779 C.3     1  UNL1        0.0693
      2 C          60.2919   87.7746    9.0074 C.2     1  UNL1        0.1534
      3 O          59.6247   88.6253    7.9677 O.2     1  UNL1       -0.2960
      4 C          60.5517   88.3293   10.3766 C.3     1  UNL1        0.0937
      5 C          60.8054   89.7969   10.5555 C.3     1  UNL1        0.1179
      6 O          59.9000   90.7995    9.9035 O.3     1  UNL1       -0.3840
      7 H          59.2076   90.3353    9.4075 H       1  UNL1        0.2104
      8 C          61.9644   90.2618   11.3865 C.3     1  UNL1        0.0297
      9 C          62.5924   89.3339   12.3838 C.3     1  UNL1        0.0025
     10 C          63.8728   89.7188   13.0638 C.3     1  UNL1        0.0001
     11 C          64.3284   87.6319   14.5428 C.3     1  UNL1        0.0000
     12 C          64.2249   89.1209   14.3936 C.3     1  UNL1        0.0000
     13 C          62.1337   85.9522    8.8155 C.3     1  UNL1        0.0342
     14 C          62.5932   85.2441   10.0555 C.ar    1  UNL1       -0.0185
     15 C          62.0600   85.6559   11.3956 C.ar    1  UNL1       -0.0009
     16 C          62.5196   84.9478   12.6355 C.ar    1  UNL1        0.0397
     17 C          63.5123   83.8278   12.5353 C.ar    1  UNL1        0.1721
     18 C          64.0454   83.4159   11.1951 C.ar    1  UNL1        0.1674
     19 O          65.0382   82.2959   11.0948 O.3     1  UNL1       -0.5029
     20 C          63.5859   84.1241    9.9552 C.ar    1  UNL1        0.0355
     21 H          65.3253   81.8535   11.8694 H       1  UNL1        0.2923
     22 O          63.9718   83.1197   13.7752 O.3     1  UNL1       -0.4684
     23 C          64.2526   83.9008   15.0246 C.3     1  UNL1        0.2526
@<TRIPOS>BOND
     1    11    12    1
     2    12    10    1
     3    10     9    1
     4     9     8    1
     5     8     5    1
     6     5     6    1
     7     5     4    1
     8     4     2    1
     9     2     3    2
    10     2     1    1
    11     1    13    1
    12    13    14    1
    13    14    15   ar
    14    15    16   ar
    15    16    17   ar
    16    17    22    1
    17    22    23    1
    18    17    18   ar
    19    18    19    1
    20    18    20   ar
    21    20    14   ar
    22     6     7    1
    23    19    21    1
@<TRIPOS>MOLECULE
*****
 23 23 0 0 0
SMALL
GASTEIGER

@<TRIPOS>ATOM
      1 C          61.0043   86.9193    9.0932 C.3     1  UNL1        0.0693
      2 C          61.1474   88.3805    9.4006 C.2     1  UNL1        0.1534
      3 O          60.1837   89.3684    8.8131 O.2     1  UNL1       -0.2960
      4 C          62.2543   88.8537   10.2956 C.3     1  UNL1        0.0937
      5 C          62.1880   90.2194   10.9125 C.3     1  UNL1        0.1179
      6 O          60.8979   90.7185   11.4925 O.3     1  UNL1       -0.3840
      7 H          60.2123   90.0404   11.3874 H       1  UNL1        0.2104
      8 C          63.4119   91.0858   10.9494 C.3     1  UNL1        0.0297
      9 C          64.1098   91.3430   12.2520 C.3     1  UNL1        0.0025
     10 C          65.2309   92.3373   12.3187 C.3     1  UNL1        0.0001
     11 C          66.1416   91.3336   14.5353 C.3     1  UNL1        0.0000
     12 C          66.3608   92.1301   13.2833 C.3     1  UNL1        0.0000
     13 C          62.2233   86.0845    8.8342 C.3     1  UNL1        0.0342
     14 C          62.7394   85.1607    9.8974 C.ar    1  UNL1       -0.0185
     15 C          63.6633   84.0373    9.5309 C.ar    1  UNL1       -0.0009
     16 C          64.1794   83.1136   10.5941 C.ar    1  UNL1        0.0397
     17 C          63.7717   83.3133   12.0237 C.ar    1  UNL1        0.1721
     18 C          62.8479   84.4367   12.3902 C.ar    1  UNL1        0.1674
     19 O          62.4401   84.6364   13.8198 O.3     1  UNL1       -0.5029
     20 C          62.3317   85.3604   11.3270 C.ar    1  UNL1        0.0355
     21 H          62.7625   84.0594   14.4840 H       1  UNL1        0.2923
     22 O          64.2879   82.3895   13.0869 O.3     1  UNL1       -0.4684
     23 C          63.4906   81.1824   13.4833 C.3     1  UNL1        0.2526
@<TRIPOS>BOND
     1    11    12    1
     2    12    10    1
     3    10     9    1
     4     9     8    1
     5     8     5    1
     6     5     6    1
     7     5     4    1
     8     4     2    1
     9     2     3    2
    10     2     1    1
    11     1    13    1
    12    13    14    1
    13    14    15   ar
    14    15    16   ar
    15    16    17   ar
    16    17    22    1
    17    22    23    1
    18    17    18   ar
    19    18    19    1
    20    18    20   ar
    21    20    14   ar
    22     6     7    1
    23    19    21    1
