@<TRIPOS>MOLECULE
*****
 19 20 0 0 0
SMALL
GASTEIGER

@<TRIPOS>ATOM
      1 C          61.0331   86.2846    8.9615 C.3     1  UNL1        0.0341
      2 C          61.7832   86.5726   10.2282 C.2     1  UNL1        0.0151
      3 C          62.0786   85.2428   10.8560 C.2     1  UNL1        0.0015
      4 C          62.7029   84.4973   11.9983 C.3     1  UNL1        0.1347
      5 O          62.4709   83.0401   11.7292 O.3     1  UNL1       -0.3800
      6 C          63.4578   84.5731   13.2922 C.3     1  UNL1        0.0634
      7 C          64.1039   85.4460   14.3270 C.3     1  UNL1        0.1202
      8 C          64.3318   84.0565   14.8441 C.3     1  UNL1        0.0322
      9 O          64.8574   85.6637   15.6056 O.3     1  UNL1       -0.3561
     10 C          64.4358   86.8388   14.7742 C.3     1  UNL1        0.1401
     11 C          64.3483   88.3094   14.4916 C.3     1  UNL1        0.0360
     12 C          63.8691   89.3907   13.5692 C.3     1  UNL1        0.0211
     13 C          63.8532   90.8821   13.4083 C.3     1  UNL1        0.0044
     14 C          64.5774   90.0173   14.7335 C.3     1  UNL1        0.0044
     15 C          63.1503   89.7397   12.2996 C.2     1  UNL1       -0.0234
     16 C          62.4202   89.2453   11.0861 C.2     1  UNL1        0.0371
     17 C          61.9106   88.0647   10.3139 C.2     1  UNL1        0.1912
     18 O          61.2322   88.6175    9.0956 O.2     1  UNL1       -0.2869
     19 H          62.8591   82.5132   12.4452 H       1  UNL1        0.2108
@<TRIPOS>BOND
     1     1     2    1
     2     2     3    2
     3     3     4    1
     4     4     5    1
     5     4     6    1
     6     6     7    1
     7     7     8    1
     8     7     9    1
     9     9    10    1
    10    10    11    1
    11    11    12    1
    12    12    13    1
    13    12    14    1
    14    12    15    1
    15    15    16    2
    16    16    17    1
    17    17    18    2
    18    17     2    1
    19    10     7    1
    20     5    19    1
@<TRIPOS>MOLECULE
*****
 19 20 0 0 0
SMALL
GASTEIGER

@<TRIPOS>ATOM
      1 C          64.6229   89.9912   14.8054 C.3     1  UNL1        0.0341
      2 C          64.0578   88.9080   13.9351 C.2     1  UNL1        0.0151
      3 C          64.4069   87.6084   14.5978 C.2     1  UNL1        0.0015
      4 C          64.3267   86.1110   14.5597 C.3     1  UNL1        0.1347
      5 O          65.0433   85.6181   15.7818 O.3     1  UNL1       -0.3800
      6 C          63.8428   84.8913   13.8330 C.3     1  UNL1        0.0634
      7 C          63.1087   84.3365   12.6483 C.3     1  UNL1        0.1202
      8 C          63.5219   83.1138   13.4127 C.3     1  UNL1        0.0322
      9 O          62.5695   83.2052   11.8241 O.3     1  UNL1       -0.3561
     10 C          62.3576   84.6228   11.3819 C.3     1  UNL1        0.1401
     11 C          61.8278   85.6593   10.4357 C.3     1  UNL1        0.0360
     12 C          61.6877   87.1168   10.1103 C.3     1  UNL1        0.0211
     13 C          61.1067   88.0456    9.0857 C.3     1  UNL1        0.0044
     14 C          61.0137   86.3084    9.0415 C.3     1  UNL1        0.0044
     15 C          61.9817   88.5327   10.5089 C.2     1  UNL1       -0.0234
     16 C          62.6164   89.4574   11.5049 C.2     1  UNL1        0.0371
     17 C          63.3904   89.5973   12.7822 C.2     1  UNL1        0.1912
     18 O          63.5794   91.0689   13.0027 O.2     1  UNL1       -0.2869
     19 H          65.0185   84.6487   15.8022 H       1  UNL1        0.2108
@<TRIPOS>BOND
     1     1     2    1
     2     2     3    2
     3     3     4    1
     4     4     5    1
     5     4     6    1
     6     6     7    1
     7     7     8    1
     8     7     9    1
     9     9    10    1
    10    10    11    1
    11    11    12    1
    12    12    13    1
    13    12    14    1
    14    12    15    1
    15    15    16    2
    16    16    17    1
    17    17    18    2
    18    17     2    1
    19    10     7    1
    20     5    19    1
@<TRIPOS>MOLECULE
*****
 19 20 0 0 0
SMALL
GASTEIGER

@<TRIPOS>ATOM
      1 C          64.1803   91.6109   13.2811 C.3     1  UNL1        0.0341
      2 C          63.8155   90.1936   12.9519 C.2     1  UNL1        0.0151
      3 C          63.0817   90.2389   11.6444 C.2     1  UNL1        0.0015
      4 C          62.3752   89.4713   10.5665 C.3     1  UNL1        0.1347
      5 O          61.9285   90.4815    9.5517 O.3     1  UNL1       -0.3800
      6 C          61.9205   88.1345   10.0605 C.3     1  UNL1        0.0634
      7 C          61.8619   86.6528   10.2870 C.3     1  UNL1        0.1202
      8 C          61.1470   86.8396    8.9816 C.3     1  UNL1        0.0322
      9 O          61.4662   85.2592    9.8979 O.3     1  UNL1       -0.3561
     10 C          62.2179   85.4968   11.1740 C.3     1  UNL1        0.1401
     11 C          62.8756   85.0334   12.4401 C.3     1  UNL1        0.0360
     12 C          63.6261   85.4098   13.6830 C.3     1  UNL1        0.0211
     13 C          64.2462   84.8138   14.9120 C.3     1  UNL1        0.0044
     14 C          63.4266   83.9233   13.6616 C.3     1  UNL1        0.0044
     15 C          64.2312   86.5065   14.5084 C.2     1  UNL1       -0.0234
     16 C          64.4987   87.9753   14.6541 C.2     1  UNL1        0.0371
     17 C          64.3437   89.3497   14.0738 C.2     1  UNL1        0.1912
     18 O          65.0062   90.2915   15.0352 O.2     1  UNL1       -0.2869
     19 H          61.4633   90.0306    8.8298 H       1  UNL1        0.2108
@<TRIPOS>BOND
     1     1     2    1
     2     2     3    2
     3     3     4    1
     4     4     5    1
     5     4     6    1
     6     6     7    1
     7     7     8    1
     8     7     9    1
     9     9    10    1
    10    10    11    1
    11    11    12    1
    12    12    13    1
    13    12    14    1
    14    12    15    1
    15    15    16    2
    16    16    17    1
    17    17    18    2
    18    17     2    1
    19    10     7    1
    20     5    19    1
@<TRIPOS>MOLECULE
*****
 19 20 0 0 0
SMALL
GASTEIGER

@<TRIPOS>ATOM
      1 C          62.9491   83.3930   12.4549 C.3     1  UNL1        0.0341
      2 C          62.9237   84.8910   12.3829 C.2     1  UNL1        0.0151
      3 C          62.1217   85.2420   11.1649 C.2     1  UNL1        0.0015
      4 C          61.5600   86.3256   10.2929 C.3     1  UNL1        0.1347
      5 O          60.8171   85.6359    9.1873 O.3     1  UNL1       -0.3800
      6 C          61.4169   87.7978   10.0439 C.3     1  UNL1        0.0634
      7 C          61.7378   89.1913   10.4970 C.3     1  UNL1        0.1202
      8 C          60.9196   89.4020    9.2576 C.3     1  UNL1        0.0322
      9 O          61.6729   90.6841   10.3656 O.3     1  UNL1       -0.3561
     10 C          62.4208   90.0636   11.5082 C.3     1  UNL1        0.1401
     11 C          63.2492   90.1377   12.7566 C.3     1  UNL1        0.0360
     12 C          63.9598   89.3902   13.8457 C.3     1  UNL1        0.0211
     13 C          64.7820   89.6063   15.0816 C.3     1  UNL1        0.0044
     14 C          64.1303   90.8634   14.0700 C.3     1  UNL1        0.0044
     15 C          64.3271   88.0582   14.4298 C.2     1  UNL1       -0.0234
     16 C          64.2344   86.5649   14.3234 C.2     1  UNL1        0.0371
     17 C          63.7112   85.3842   13.5604 C.2     1  UNL1        0.1912
     18 O          64.1805   84.1640   14.2959 O.2     1  UNL1       -0.2869
     19 H          60.4330   86.2993    8.5928 H       1  UNL1        0.2108
@<TRIPOS>BOND
     1     1     2    1
     2     2     3    2
     3     3     4    1
     4     4     5    1
     5     4     6    1
     6     6     7    1
     7     7     8    1
     8     7     9    1
     9     9    10    1
    10    10    11    1
    11    11    12    1
    12    12    13    1
    13    12    14    1
    14    12    15    1
    15    15    16    2
    16    16    17    1
    17    17    18    2
    18    17     2    1
    19    10     7    1
    20     5    19    1
@<TRIPOS>MOLECULE
*****
 19 20 0 0 0
SMALL
GASTEIGER

@<TRIPOS>ATOM
      1 C          63.8476   82.5485   13.2701 C.3     1  UNL1        0.0341
      2 C          63.6104   83.9922   12.9387 C.2     1  UNL1        0.0151
      3 C          64.2183   84.7875   14.0557 C.2     1  UNL1        0.0015
      4 C          64.4996   86.1439   14.6314 C.3     1  UNL1        0.1347
      5 O          65.2378   85.9127   15.9166 O.3     1  UNL1       -0.3800
      6 C          64.3649   87.6304   14.4829 C.3     1  UNL1        0.0634
      7 C          63.8571   88.7753   13.6574 C.3     1  UNL1        0.1202
      8 C          64.5027   89.4462   14.8334 C.3     1  UNL1        0.0322
      9 O          63.6536   90.2364   13.3864 O.3     1  UNL1       -0.3561
     10 C          63.1373   89.2149   12.4170 C.3     1  UNL1        0.1401
     11 C          62.4341   88.8098   11.1555 C.3     1  UNL1        0.0360
     12 C          61.9708   87.6885   10.2734 C.3     1  UNL1        0.0211
     13 C          61.2482   87.4224    8.9861 C.3     1  UNL1        0.0044
     14 C          61.5745   88.9959    9.6540 C.3     1  UNL1        0.0044
     15 C          61.8944   86.2070   10.0508 C.2     1  UNL1       -0.0234
     16 C          62.2292   84.8358   10.5584 C.2     1  UNL1        0.0371
     17 C          62.8689   84.0101   11.6349 C.2     1  UNL1        0.1912
     18 O          62.6882   82.5767   11.2317 O.2     1  UNL1       -0.2869
     19 H          65.4434   86.7661   16.3293 H       1  UNL1        0.2108
@<TRIPOS>BOND
     1     1     2    1
     2     2     3    2
     3     3     4    1
     4     4     5    1
     5     4     6    1
     6     6     7    1
     7     7     8    1
     8     7     9    1
     9     9    10    1
    10    10    11    1
    11    11    12    1
    12    12    13    1
    13    12    14    1
    14    12    15    1
    15    15    16    2
    16    16    17    1
    17    17    18    2
    18    17     2    1
    19    10     7    1
    20     5    19    1
@<TRIPOS>MOLECULE
*****
 19 20 0 0 0
SMALL
GASTEIGER

@<TRIPOS>ATOM
      1 C          61.0664   87.2587    8.6022 C.3     1  UNL1        0.0341
      2 C          61.7990   87.4216    9.9010 C.2     1  UNL1        0.0151
      3 C          62.0585   88.8906   10.0585 C.2     1  UNL1        0.0015
      4 C          62.6484   89.9850   10.8978 C.3     1  UNL1        0.1347
      5 O          62.3945   91.2664   10.1607 O.3     1  UNL1       -0.3800
      6 C          63.3814   90.3573   12.1524 C.3     1  UNL1        0.0634
      7 C          64.0248   89.8893   13.4241 C.3     1  UNL1        0.1202
      8 C          64.2178   91.3765   13.4565 C.3     1  UNL1        0.0322
      9 O          64.7591   90.1226   14.7110 O.3     1  UNL1       -0.3561
     10 C          64.3742   88.7297   14.3090 C.3     1  UNL1        0.1401
     11 C          64.3188   87.2465   14.5262 C.3     1  UNL1        0.0360
     12 C          63.8762   85.9108   14.0069 C.3     1  UNL1        0.0211
     13 C          63.8907   84.4498   14.3466 C.3     1  UNL1        0.0044
     14 C          64.5750   85.7194   15.3202 C.3     1  UNL1        0.0044
     15 C          63.1868   85.1465   12.9156 C.2     1  UNL1       -0.0234
     16 C          62.4696   85.1963   11.5992 C.2     1  UNL1        0.0371
     17 C          61.9522   86.0445   10.4754 C.2     1  UNL1        0.1912
     18 O          61.3060   85.1056    9.5002 O.2     1  UNL1       -0.2869
     19 H          62.7601   92.0086   10.6670 H       1  UNL1        0.2108
@<TRIPOS>BOND
     1     1     2    1
     2     2     3    2
     3     3     4    1
     4     4     5    1
     5     4     6    1
     6     6     7    1
     7     7     8    1
     8     7     9    1
     9     9    10    1
    10    10    11    1
    11    11    12    1
    12    12    13    1
    13    12    14    1
    14    12    15    1
    15    15    16    2
    16    16    17    1
    17    17    18    2
    18    17     2    1
    19    10     7    1
    20     5    19    1
@<TRIPOS>MOLECULE
*****
 19 20 0 0 0
SMALL
GASTEIGER

@<TRIPOS>ATOM
      1 C          64.5278   85.5163   15.5105 C.3     1  UNL1        0.0341
      2 C          64.0148   86.2713   14.3202 C.2     1  UNL1        0.0151
      3 C          64.3403   87.7152   14.5633 C.2     1  UNL1        0.0015
      4 C          64.2735   89.1262   14.0585 C.3     1  UNL1        0.1347
      5 O          64.9321   89.9798   15.1013 O.3     1  UNL1       -0.3800
      6 C          63.8355   90.0562   12.9662 C.3     1  UNL1        0.0634
      7 C          63.1654   90.2100   11.6329 C.3     1  UNL1        0.1202
      8 C          63.5494   91.6128   11.9997 C.3     1  UNL1        0.0322
      9 O          62.6764   91.0252   10.4727 O.3     1  UNL1       -0.3561
     10 C          62.4760   89.5387   10.4822 C.3     1  UNL1        0.1401
     11 C          61.9862   88.2554    9.8794 C.3     1  UNL1        0.0360
     12 C          61.8514   86.7678   10.0157 C.3     1  UNL1        0.0211
     13 C          61.3150   85.5621    9.3024 C.3     1  UNL1        0.0044
     14 C          61.2374   87.1990    8.7168 C.3     1  UNL1        0.0044
     15 C          62.1145   85.5479   10.8481 C.2     1  UNL1       -0.0234
     16 C          62.6919   84.9832   12.1120 C.2     1  UNL1        0.0371
     17 C          63.4003   85.2528   13.4064 C.2     1  UNL1        0.1912
     18 O          63.5670   83.9239   14.0818 O.2     1  UNL1       -0.2869
     19 H          64.9137   90.9075   14.8187 H       1  UNL1        0.2108
@<TRIPOS>BOND
     1     1     2    1
     2     2     3    2
     3     3     4    1
     4     4     5    1
     5     4     6    1
     6     6     7    1
     7     7     8    1
     8     7     9    1
     9     9    10    1
    10    10    11    1
    11    11    12    1
    12    12    13    1
    13    12    14    1
    14    12    15    1
    15    15    16    2
    16    16    17    1
    17    17    18    2
    18    17     2    1
    19    10     7    1
    20     5    19    1
@<TRIPOS>MOLECULE
*****
 19 20 0 0 0
SMALL
GASTEIGER

@<TRIPOS>ATOM
      1 C          64.3496   83.8574   14.9584 C.3     1  UNL1        0.0341
      2 C          63.9254   84.9651   14.0401 C.2     1  UNL1        0.0151
      3 C          63.2868   84.3082   12.8524 C.2     1  UNL1        0.0015
      4 C          62.6120   84.4840   11.5243 C.3     1  UNL1        0.1347
      5 O          62.2961   83.1053   11.0250 O.3     1  UNL1       -0.3800
      6 C          62.1151   85.4366   10.4777 C.3     1  UNL1        0.0634
      7 C          61.9539   86.8637   10.0446 C.3     1  UNL1        0.1202
      8 C          61.3425   86.0817    8.9201 C.3     1  UNL1        0.0322
      9 O          61.5044   87.9220    9.0814 O.3     1  UNL1       -0.3561
     10 C          62.1796   88.3121   10.3627 C.3     1  UNL1        0.1401
     11 C          62.7206   89.3219   11.3310 C.3     1  UNL1        0.0360
     12 C          63.4050   89.5727   12.6420 C.3     1  UNL1        0.0211
     13 C          63.9032   90.6833   13.5186 C.3     1  UNL1        0.0044
     14 C          63.1202   90.8872   11.9779 C.3     1  UNL1        0.0044
     15 C          64.0156   88.9846   13.8795 C.2     1  UNL1       -0.0234
     16 C          64.3585   87.7445   14.6506 C.2     1  UNL1        0.0371
     17 C          64.3249   86.2461   14.7105 C.2     1  UNL1        0.1912
     18 O          64.9742   85.8603   16.0064 O.2     1  UNL1       -0.2869
     19 H          61.8558   83.1666   10.1629 H       1  UNL1        0.2108
@<TRIPOS>BOND
     1     1     2    1
     2     2     3    2
     3     3     4    1
     4     4     5    1
     5     4     6    1
     6     6     7    1
     7     7     8    1
     8     7     9    1
     9     9    10    1
    10    10    11    1
    11    11    12    1
    12    12    13    1
    13    12    14    1
    14    12    15    1
    15    15    16    2
    16    16    17    1
    17    17    18    2
    18    17     2    1
    19    10     7    1
    20     5    19    1
@<TRIPOS>MOLECULE
*****
 19 20 0 0 0
SMALL
GASTEIGER

@<TRIPOS>ATOM
      1 C          60.4933   88.7177    8.7375 C.3     1  UNL1        0.0341
      2 C          61.2842   88.1634    9.8852 C.2     1  UNL1        0.0151
      3 C          61.7966   89.3445   10.6549 C.2     1  UNL1        0.0015
      4 C          62.5919   89.8383   11.8270 C.3     1  UNL1        0.1347
      5 O          62.5379   91.3363   11.7735 O.3     1  UNL1       -0.3800
      6 C          63.4177   89.4880   13.0292 C.3     1  UNL1        0.0634
      7 C          64.0118   88.4048   13.8799 C.3     1  UNL1        0.1202
      8 C          64.4578   89.6684   14.5539 C.3     1  UNL1        0.0322
      9 O          64.8161   87.9174   15.0484 O.3     1  UNL1       -0.3561
     10 C          64.1855   86.9326   14.1090 C.3     1  UNL1        0.1401
     11 C          63.8838   85.5388   13.6438 C.3     1  UNL1        0.0360
     12 C          63.2023   84.6660   12.6320 C.3     1  UNL1        0.0211
     13 C          62.9771   83.2259   12.2779 C.3     1  UNL1        0.0044
     14 C          63.8998   83.7987   13.6376 C.3     1  UNL1        0.0044
     15 C          62.3575   84.5913   11.3947 C.2     1  UNL1       -0.0234
     16 C          61.6176   85.3384   10.3249 C.2     1  UNL1        0.0371
     17 C          61.2175   86.6700    9.7622 C.2     1  UNL1        0.1912
     18 O          60.3890   86.3828    8.5452 O.2     1  UNL1       -0.2869
     19 H          63.0413   91.7048   12.5162 H       1  UNL1        0.2108
@<TRIPOS>BOND
     1     1     2    1
     2     2     3    2
     3     3     4    1
     4     4     5    1
     5     4     6    1
     6     6     7    1
     7     7     8    1
     8     7     9    1
     9     9    10    1
    10    10    11    1
    11    11    12    1
    12    12    13    1
    13    12    14    1
    14    12    15    1
    15    15    16    2
    16    16    17    1
    17    17    18    2
    18    17     2    1
    19    10     7    1
    20     5    19    1
