@<TRIPOS>MOLECULE
*****
 37 41 0 0 0
SMALL
GASTEIGER

@<TRIPOS>ATOM
      1 C          64.2813   91.0874   12.5682 C.2     1  UNL1        0.2240
      2 N          65.3928   92.0655   12.3276 N.2     1  UNL1       -0.0343
      3 C          65.3212   92.5056   10.8954 C.2     1  UNL1        0.3753
      4 N          64.1653   91.7994   10.2508 N.2     1  UNL1       -0.0510
      5 C          63.5227   90.9230   11.2847 C.3     1  UNL1        0.3017
      6 N          63.5506   86.7528   15.5850 N.ar    1  UNL1       -0.1822
      7 C          63.2207   86.6617   17.0454 C.ar    1  UNL1        0.2143
      8 N          63.0293   85.3970   17.8289 N.pl3   1  UNL1       -0.3275
      9 N          63.1157   88.0575   17.5847 N.ar    1  UNL1       -0.2126
     10 C          63.3808   89.0111   16.4577 C.ar    1  UNL1        0.1017
     11 C          63.4122   90.5095   16.3971 C.ar    1  UNL1        0.0208
     12 C          63.7124   91.2016   15.1006 C.ar    1  UNL1        0.0052
     13 C          63.9811   90.3953   13.8647 C.ar    1  UNL1        0.0450
     14 C          63.9498   88.8968   13.9252 C.ar    1  UNL1        0.0241
     15 C          63.6496   88.2048   15.2217 C.ar    1  UNL1        0.1027
     16 H          63.1192   84.5236   17.3835 H       1  UNL1        0.1451
     17 H          62.8137   85.4403   18.7885 H       1  UNL1        0.1451
     18 S          63.7471   85.5951   14.6516 S.O2    1  UNL1        0.0667
     19 O          65.2016   85.9409   14.5288 O.2     1  UNL1       -0.1521
     20 O          62.2928   85.2493   14.7743 O.2     1  UNL1       -0.1521
     21 C          64.7447   83.2476   14.1572 C.3     1  UNL1        0.0275
     22 C          63.9437   84.4374   13.7182 C.3     1  UNL1        0.1516
     23 C          63.3393   84.4696   12.3458 C.3     1  UNL1        0.0275
     24 C          66.2434   93.4806   10.2254 C.ar    1  UNL1        0.1426
     25 C          67.5157   92.9975    9.5945 C.ar    1  UNL1        0.1497
     26 F          67.8657   91.5394    9.6337 F       1  UNL1       -0.2038
     27 C          68.4379   93.9725    8.9245 C.ar    1  UNL1        0.0300
     28 C          68.0878   95.4305    8.8854 C.ar    1  UNL1        0.0046
     29 C          66.8155   95.9136    9.5163 C.ar    1  UNL1        0.0300
     30 C          65.8933   94.9386   10.1863 C.ar    1  UNL1        0.1497
     31 F          64.6210   95.4217   10.8172 F       1  UNL1       -0.2038
     32 C          62.3306   90.0376   11.0722 C.ar    1  UNL1        0.0343
     33 C          61.0014   90.4168   11.6550 C.ar    1  UNL1        0.0003
     34 C          59.8094   89.5314   11.4425 C.ar    1  UNL1       -0.0002
     35 C          59.9465   88.2668   10.6474 C.ar    1  UNL1       -0.0000
     36 C          61.2757   87.8877   10.0647 C.ar    1  UNL1       -0.0002
     37 C          62.4677   88.7731   10.2772 C.ar    1  UNL1        0.0003
@<TRIPOS>BOND
     1    21    22    1
     2    22    23    1
     3    22    18    1
     4    18    19    2
     5    18    20    2
     6    18     6    1
     7     6     7   ar
     8     7     8    1
     9     7     9   ar
    10     9    10   ar
    11    10    11   ar
    12    11    12   ar
    13    12    13   ar
    14    13     1    1
    15     1     2    2
    16     2     3    1
    17     3    24    1
    18    24    25   ar
    19    25    26    1
    20    25    27   ar
    21    27    28   ar
    22    28    29   ar
    23    29    30   ar
    24    30    31    1
    25     3     4    2
    26     4     5    1
    27     5    32    1
    28    32    33   ar
    29    33    34   ar
    30    34    35   ar
    31    35    36   ar
    32    36    37   ar
    33    13    14   ar
    34    14    15   ar
    35    15     6   ar
    36    15    10   ar
    37     5     1    1
    38    37    32   ar
    39    30    24   ar
    40     8    16    1
    41     8    17    1
@<TRIPOS>MOLECULE
*****
 37 41 0 0 0
SMALL
GASTEIGER

@<TRIPOS>ATOM
      1 C          64.2841   91.0890   12.5724 C.2     1  UNL1        0.2240
      2 N          65.3921   92.0719   12.3349 N.2     1  UNL1       -0.0343
      3 C          65.3239   92.5099   10.9019 C.2     1  UNL1        0.3753
      4 N          64.1737   91.7977   10.2537 N.2     1  UNL1       -0.0510
      5 C          63.5312   90.9195   11.2862 C.3     1  UNL1        0.3017
      6 N          63.5515   86.7548   15.5893 N.ar    1  UNL1       -0.1822
      7 C          63.2190   86.6640   17.0492 C.ar    1  UNL1        0.2143
      8 N          63.0272   85.3994   17.8328 N.pl3   1  UNL1       -0.3275
      9 N          63.1120   88.0598   17.5879 N.ar    1  UNL1       -0.2126
     10 C          63.3784   89.0133   16.4610 C.ar    1  UNL1        0.1017
     11 C          63.4087   90.5117   16.4000 C.ar    1  UNL1        0.0208
     12 C          63.7106   91.2036   15.1038 C.ar    1  UNL1        0.0052
     13 C          63.9822   90.3970   13.8686 C.ar    1  UNL1        0.0450
     14 C          63.9519   88.8986   13.9296 C.ar    1  UNL1        0.0241
     15 C          63.6500   88.2067   15.2258 C.ar    1  UNL1        0.1027
     16 H          63.1187   84.5259   17.3878 H       1  UNL1        0.1451
     17 H          62.8099   85.4428   18.7920 H       1  UNL1        0.1451
     18 S          63.7506   85.5969   14.6567 S.O2    1  UNL1        0.0667
     19 O          65.2103   85.9279   14.5574 O.2     1  UNL1       -0.1521
     20 O          62.2910   85.2660   14.7559 O.2     1  UNL1       -0.1521
     21 C          64.6896   83.2200   14.1891 C.3     1  UNL1        0.0275
     22 C          63.9497   84.4391   13.7241 C.3     1  UNL1        0.1516
     23 C          63.4089   84.5004   12.3263 C.3     1  UNL1        0.0275
     24 C          66.2441   93.4883   10.2342 C.ar    1  UNL1        0.1426
     25 C          65.9019   94.9487   10.2175 C.ar    1  UNL1        0.1497
     26 F          64.6393   95.4306   10.8685 F       1  UNL1       -0.2038
     27 C          66.8222   95.9271    9.5499 C.ar    1  UNL1        0.0300
     28 C          68.0847   95.4451    8.8989 C.ar    1  UNL1        0.0046
     29 C          68.4269   93.9848    8.9156 C.ar    1  UNL1        0.0300
     30 C          67.5067   93.0063    9.5832 C.ar    1  UNL1        0.1497
     31 F          67.8489   91.5460    9.5999 F       1  UNL1       -0.2038
     32 C          62.3441   90.0283   11.0703 C.ar    1  UNL1        0.0343
     33 C          62.4989   88.7435   10.3117 C.ar    1  UNL1        0.0003
     34 C          61.3119   87.8524   10.0958 C.ar    1  UNL1       -0.0002
     35 C          59.9699   88.2459   10.6385 C.ar    1  UNL1       -0.0000
     36 C          59.8151   89.5307   11.3970 C.ar    1  UNL1       -0.0002
     37 C          61.0022   90.4218   11.6129 C.ar    1  UNL1        0.0003
@<TRIPOS>BOND
     1    21    22    1
     2    22    23    1
     3    22    18    1
     4    18    19    2
     5    18    20    2
     6    18     6    1
     7     6     7   ar
     8     7     8    1
     9     7     9   ar
    10     9    10   ar
    11    10    11   ar
    12    11    12   ar
    13    12    13   ar
    14    13     1    1
    15     1     2    2
    16     2     3    1
    17     3    24    1
    18    24    25   ar
    19    25    26    1
    20    25    27   ar
    21    27    28   ar
    22    28    29   ar
    23    29    30   ar
    24    30    31    1
    25     3     4    2
    26     4     5    1
    27     5    32    1
    28    32    33   ar
    29    33    34   ar
    30    34    35   ar
    31    35    36   ar
    32    36    37   ar
    33    13    14   ar
    34    14    15   ar
    35    15     6   ar
    36    15    10   ar
    37     5     1    1
    38    37    32   ar
    39    30    24   ar
    40     8    16    1
    41     8    17    1
@<TRIPOS>MOLECULE
*****
 37 41 0 0 0
SMALL
GASTEIGER

@<TRIPOS>ATOM
      1 C          63.3703   87.4587   13.3315 C.2     1  UNL1        0.2240
      2 N          63.6522   86.0423   13.7371 N.2     1  UNL1       -0.0343
      3 C          62.9932   85.1350   12.7408 C.2     1  UNL1        0.3753
      4 N          62.3040   85.9907   11.7195 N.2     1  UNL1       -0.0510
      5 C          62.5371   87.4267   12.0847 C.3     1  UNL1        0.3017
      6 N          65.9251   92.1316   13.5768 N.ar    1  UNL1       -0.1822
      7 C          66.0834   93.0628   14.7421 C.ar    1  UNL1        0.2143
      8 N          66.8215   94.3686   14.7333 N.pl3   1  UNL1       -0.3275
      9 N          65.3739   92.4589   15.9176 N.ar    1  UNL1       -0.2126
     10 C          64.7771   91.1545   15.4789 C.ar    1  UNL1        0.1017
     11 C          63.9675   90.1249   16.2099 C.ar    1  UNL1        0.0208
     12 C          63.4986   88.8930   15.4941 C.ar    1  UNL1        0.0052
     13 C          63.8392   88.6907   14.0473 C.ar    1  UNL1        0.0450
     14 C          64.6488   89.7203   13.3164 C.ar    1  UNL1        0.0241
     15 C          65.1178   90.9523   14.0322 C.ar    1  UNL1        0.1027
     16 H          67.2574   94.6821   13.9081 H       1  UNL1        0.1451
     17 H          66.8702   94.9121   15.5528 H       1  UNL1        0.1451
     18 S          66.4771   92.3428   12.1982 S.O2    1  UNL1        0.0667
     19 O          65.0957   92.6297   11.6889 O.2     1  UNL1       -0.1521
     20 O          67.8585   92.0558   12.7073 O.2     1  UNL1       -0.1521
     21 C          68.2228   91.7696   10.3611 C.3     1  UNL1        0.0275
     22 C          67.0291   92.5539   10.8194 C.3     1  UNL1        0.1516
     23 C          66.3874   93.5494    9.8990 C.3     1  UNL1        0.0275
     24 C          63.0189   83.6354   12.7620 C.ar    1  UNL1        0.1426
     25 C          63.5191   82.8768   11.5685 C.ar    1  UNL1        0.1497
     26 F          63.9935   83.6180   10.3537 F       1  UNL1       -0.2038
     27 C          63.5448   81.3772   11.5897 C.ar    1  UNL1        0.0300
     28 C          63.0703   80.6361   12.8045 C.ar    1  UNL1        0.0046
     29 C          62.5701   81.3947   13.9980 C.ar    1  UNL1        0.0300
     30 C          62.5445   82.8943   13.9768 C.ar    1  UNL1        0.1497
     31 F          62.0443   83.6528   15.1703 F       1  UNL1       -0.2038
     32 C          62.0265   88.6212   11.3346 C.ar    1  UNL1        0.0343
     33 C          60.5537   88.9012   11.2832 C.ar    1  UNL1        0.0003
     34 C          60.0432   90.0956   10.5331 C.ar    1  UNL1       -0.0002
     35 C          61.0053   91.0101    9.8343 C.ar    1  UNL1       -0.0000
     36 C          62.4781   90.7300    9.8858 C.ar    1  UNL1       -0.0002
     37 C          62.9886   89.5356   10.6359 C.ar    1  UNL1        0.0003
@<TRIPOS>BOND
     1    21    22    1
     2    22    23    1
     3    22    18    1
     4    18    19    2
     5    18    20    2
     6    18     6    1
     7     6     7   ar
     8     7     8    1
     9     7     9   ar
    10     9    10   ar
    11    10    11   ar
    12    11    12   ar
    13    12    13   ar
    14    13     1    1
    15     1     2    2
    16     2     3    1
    17     3    24    1
    18    24    25   ar
    19    25    26    1
    20    25    27   ar
    21    27    28   ar
    22    28    29   ar
    23    29    30   ar
    24    30    31    1
    25     3     4    2
    26     4     5    1
    27     5    32    1
    28    32    33   ar
    29    33    34   ar
    30    34    35   ar
    31    35    36   ar
    32    36    37   ar
    33    13    14   ar
    34    14    15   ar
    35    15     6   ar
    36    15    10   ar
    37     5     1    1
    38    37    32   ar
    39    30    24   ar
    40     8    16    1
    41     8    17    1
@<TRIPOS>MOLECULE
*****
 37 41 0 0 0
SMALL
GASTEIGER

@<TRIPOS>ATOM
      1 C          63.3938   87.4839   13.3320 C.2     1  UNL1        0.2240
      2 N          63.6722   86.0695   13.7467 N.2     1  UNL1       -0.0343
      3 C          63.0142   85.1573   12.7542 C.2     1  UNL1        0.3753
      4 N          62.3292   86.0081   11.7261 N.2     1  UNL1       -0.0510
      5 C          62.5638   87.4459   12.0832 C.3     1  UNL1        0.3017
      6 N          65.9559   92.1540   13.5557 N.ar    1  UNL1       -0.1822
      7 C          66.1129   93.0918   14.7158 C.ar    1  UNL1        0.2143
      8 N          66.8533   94.3963   14.7011 N.pl3   1  UNL1       -0.3275
      9 N          65.3995   92.4961   15.8932 N.ar    1  UNL1       -0.2126
     10 C          64.8016   91.1901   15.4608 C.ar    1  UNL1        0.1017
     11 C          63.9885   90.1662   16.1959 C.ar    1  UNL1        0.0208
     12 C          63.5193   88.9308   15.4863 C.ar    1  UNL1        0.0052
     13 C          63.8631   88.7194   14.0416 C.ar    1  UNL1        0.0450
     14 C          64.6762   89.7433   13.3065 C.ar    1  UNL1        0.0241
     15 C          65.1455   90.9787   14.0161 C.ar    1  UNL1        0.1027
     16 H          67.2917   94.7041   13.8751 H       1  UNL1        0.1451
     17 H          66.9008   94.9445   15.5174 H       1  UNL1        0.1451
     18 S          66.5117   92.3559   12.1772 S.O2    1  UNL1        0.0667
     19 O          65.1326   92.6468   11.6638 O.2     1  UNL1       -0.1521
     20 O          67.8907   92.0650   12.6906 O.2     1  UNL1       -0.1521
     21 C          66.4189   93.5359    9.8644 C.3     1  UNL1        0.0275
     22 C          67.0674   92.5579   10.7987 C.3     1  UNL1        0.1516
     23 C          68.2717   91.7818   10.3544 C.3     1  UNL1        0.0275
     24 C          63.0373   83.6578   12.7845 C.ar    1  UNL1        0.1426
     25 C          62.5243   82.9240   13.9880 C.ar    1  UNL1        0.1497
     26 F          61.9883   83.6898   15.1613 F       1  UNL1       -0.2038
     27 C          62.5473   81.4245   14.0183 C.ar    1  UNL1        0.0300
     28 C          63.0833   80.6588   12.8451 C.ar    1  UNL1        0.0046
     29 C          63.5962   81.3927   11.6416 C.ar    1  UNL1        0.0300
     30 C          63.5732   82.8922   11.6113 C.ar    1  UNL1        0.1497
     31 F          64.0862   83.6260   10.4078 F       1  UNL1       -0.2038
     32 C          62.0573   88.6367   11.3246 C.ar    1  UNL1        0.0343
     33 C          60.5814   88.8743   11.2001 C.ar    1  UNL1        0.0003
     34 C          60.0749   90.0651   10.4415 C.ar    1  UNL1       -0.0002
     35 C          61.0441   91.0183    9.8075 C.ar    1  UNL1       -0.0000
     36 C          62.5199   90.7807    9.9320 C.ar    1  UNL1       -0.0002
     37 C          63.0264   89.5899   10.6906 C.ar    1  UNL1        0.0003
@<TRIPOS>BOND
     1    21    22    1
     2    22    23    1
     3    22    18    1
     4    18    19    2
     5    18    20    2
     6    18     6    1
     7     6     7   ar
     8     7     8    1
     9     7     9   ar
    10     9    10   ar
    11    10    11   ar
    12    11    12   ar
    13    12    13   ar
    14    13     1    1
    15     1     2    2
    16     2     3    1
    17     3    24    1
    18    24    25   ar
    19    25    26    1
    20    25    27   ar
    21    27    28   ar
    22    28    29   ar
    23    29    30   ar
    24    30    31    1
    25     3     4    2
    26     4     5    1
    27     5    32    1
    28    32    33   ar
    29    33    34   ar
    30    34    35   ar
    31    35    36   ar
    32    36    37   ar
    33    13    14   ar
    34    14    15   ar
    35    15     6   ar
    36    15    10   ar
    37     5     1    1
    38    37    32   ar
    39    30    24   ar
    40     8    16    1
    41     8    17    1
@<TRIPOS>MOLECULE
*****
 37 41 0 0 0
SMALL
GASTEIGER

@<TRIPOS>ATOM
      1 C          63.9035   88.7499   13.4532 C.2     1  UNL1        0.2240
      2 N          64.8144   89.8484   13.9153 N.2     1  UNL1       -0.0343
      3 C          64.6722   90.9994   12.9640 C.2     1  UNL1        0.3753
      4 N          63.6733   90.6122   11.9140 N.2     1  UNL1       -0.0510
      5 C          63.1983   89.2219   12.2164 C.3     1  UNL1        0.3017
      6 N          63.4359   83.4395   13.3834 N.ar    1  UNL1       -0.1822
      7 C          63.2542   82.4910   14.5312 C.ar    1  UNL1        0.2143
      8 N          63.1296   80.9995   14.4313 N.pl3   1  UNL1       -0.3275
      9 N          63.2188   83.2959   15.7964 N.ar    1  UNL1       -0.2126
     10 C          63.3787   84.7418   15.4307 C.ar    1  UNL1        0.1017
     11 C          63.4195   85.9891   16.2629 C.ar    1  UNL1        0.0208
     12 C          63.5944   87.3251   15.6037 C.ar    1  UNL1        0.0052
     13 C          63.7286   87.4138   14.1124 C.ar    1  UNL1        0.0450
     14 C          63.6878   86.1665   13.2802 C.ar    1  UNL1        0.0241
     15 C          63.5129   84.8306   13.9393 C.ar    1  UNL1        0.1027
     16 H          63.1650   80.5605   13.5508 H       1  UNL1        0.1451
     17 H          63.0125   80.4597   15.2462 H       1  UNL1        0.1451
     18 S          63.5250   83.0630   11.9342 S.O2    1  UNL1        0.0667
     19 O          64.7493   82.2454   12.2219 O.2     1  UNL1       -0.1521
     20 O          62.3008   83.8805   11.6465 O.2     1  UNL1       -0.1521
     21 C          63.4524   81.2538   10.0708 C.3     1  UNL1        0.0275
     22 C          63.6142   82.6864   10.4849 C.3     1  UNL1        0.1516
     23 C          63.8653   83.7425    9.4498 C.3     1  UNL1        0.0275
     24 C          65.4008   92.3079   13.0479 C.ar    1  UNL1        0.1426
     25 C          65.4997   93.1902   11.8389 C.ar    1  UNL1        0.1497
     26 F          64.8700   92.7639   10.5458 F       1  UNL1       -0.2038
     27 C          66.2283   94.4986   11.9228 C.ar    1  UNL1        0.0300
     28 C          66.8581   94.9247   13.2158 C.ar    1  UNL1        0.0046
     29 C          66.7591   94.0424   14.4249 C.ar    1  UNL1        0.0300
     30 C          66.0305   92.7340   14.3409 C.ar    1  UNL1        0.1497
     31 F          65.9316   91.8517   15.5500 F       1  UNL1       -0.2038
     32 C          62.1943   88.4409   11.4214 C.ar    1  UNL1        0.0343
     33 C          60.7306   88.7357   11.5654 C.ar    1  UNL1        0.0003
     34 C          59.7266   87.9546   10.7704 C.ar    1  UNL1       -0.0002
     35 C          60.1862   86.8788    9.8316 C.ar    1  UNL1       -0.0000
     36 C          61.6499   86.5840    9.6877 C.ar    1  UNL1       -0.0002
     37 C          62.6539   87.3651   10.4827 C.ar    1  UNL1        0.0003
@<TRIPOS>BOND
     1    21    22    1
     2    22    23    1
     3    22    18    1
     4    18    19    2
     5    18    20    2
     6    18     6    1
     7     6     7   ar
     8     7     8    1
     9     7     9   ar
    10     9    10   ar
    11    10    11   ar
    12    11    12   ar
    13    12    13   ar
    14    13     1    1
    15     1     2    2
    16     2     3    1
    17     3    24    1
    18    24    25   ar
    19    25    26    1
    20    25    27   ar
    21    27    28   ar
    22    28    29   ar
    23    29    30   ar
    24    30    31    1
    25     3     4    2
    26     4     5    1
    27     5    32    1
    28    32    33   ar
    29    33    34   ar
    30    34    35   ar
    31    35    36   ar
    32    36    37   ar
    33    13    14   ar
    34    14    15   ar
    35    15     6   ar
    36    15    10   ar
    37     5     1    1
    38    37    32   ar
    39    30    24   ar
    40     8    16    1
    41     8    17    1
@<TRIPOS>MOLECULE
*****
 37 41 0 0 0
SMALL
GASTEIGER

@<TRIPOS>ATOM
      1 C          64.4374   88.7502   14.4455 C.2     1  UNL1        0.2240
      2 N          65.5949   89.4340   15.1107 N.2     1  UNL1       -0.0343
      3 C          65.7980   90.7600   14.4395 C.2     1  UNL1        0.3753
      4 N          64.7660   90.8955   13.3593 N.2     1  UNL1       -0.0510
      5 C          63.9251   89.6534   13.3631 C.3     1  UNL1        0.3017
      6 N          63.0308   83.7380   13.2951 N.ar    1  UNL1       -0.1822
      7 C          62.4453   82.6900   14.1945 C.ar    1  UNL1        0.2143
      8 N          62.0734   81.2929   13.7949 N.pl3   1  UNL1       -0.3275
      9 N          62.2970   83.2845   15.5637 N.ar    1  UNL1       -0.2126
     10 C          62.7909   84.6999   15.5105 C.ar    1  UNL1        0.1017
     11 C          62.8862   85.7697   16.5575 C.ar    1  UNL1        0.0208
     12 C          63.4350   87.1197   16.2026 C.ar    1  UNL1        0.0052
     13 C          63.8885   87.4000   14.8005 C.ar    1  UNL1        0.0450
     14 C          63.7932   86.3302   13.7534 C.ar    1  UNL1        0.0241
     15 C          63.2444   84.9802   14.1084 C.ar    1  UNL1        0.1027
     16 H          62.2091   80.9937   12.8668 H       1  UNL1        0.1451
     17 H          61.6935   80.6751   14.4607 H       1  UNL1        0.1451
     18 S          63.3472   83.5728   11.8382 S.O2    1  UNL1        0.0667
     19 O          64.4587   82.6279   12.1867 O.2     1  UNL1       -0.1521
     20 O          62.2357   84.5178   11.4897 O.2     1  UNL1       -0.1521
     21 C          63.3540   84.5135    9.4163 C.3     1  UNL1        0.0275
     22 C          63.6636   83.4076   10.3813 C.3     1  UNL1        0.1516
     23 C          64.2897   82.1364    9.8893 C.3     1  UNL1        0.0275
     24 C          66.8486   91.7725   14.7872 C.ar    1  UNL1        0.1426
     25 C          68.0837   91.8915   13.9443 C.ar    1  UNL1        0.1497
     26 F          68.2682   90.9978   12.7537 F       1  UNL1       -0.2038
     27 C          69.1343   92.9040   14.2921 C.ar    1  UNL1        0.0300
     28 C          68.9498   93.7976   15.4826 C.ar    1  UNL1        0.0046
     29 C          67.7147   93.6786   16.3255 C.ar    1  UNL1        0.0300
     30 C          66.6641   92.6661   15.9777 C.ar    1  UNL1        0.1497
     31 F          65.4290   92.5471   16.8206 F       1  UNL1       -0.2038
     32 C          62.7740   89.3652   12.4456 C.ar    1  UNL1        0.0343
     33 C          62.8960   88.2935   11.4031 C.ar    1  UNL1        0.0003
     34 C          61.7450   88.0052   10.4856 C.ar    1  UNL1       -0.0002
     35 C          60.4719   88.7887   10.6103 C.ar    1  UNL1       -0.0000
     36 C          60.3499   89.8604   11.6527 C.ar    1  UNL1       -0.0002
     37 C          61.5010   90.1486   12.5703 C.ar    1  UNL1        0.0003
@<TRIPOS>BOND
     1    21    22    1
     2    22    23    1
     3    22    18    1
     4    18    19    2
     5    18    20    2
     6    18     6    1
     7     6     7   ar
     8     7     8    1
     9     7     9   ar
    10     9    10   ar
    11    10    11   ar
    12    11    12   ar
    13    12    13   ar
    14    13     1    1
    15     1     2    2
    16     2     3    1
    17     3    24    1
    18    24    25   ar
    19    25    26    1
    20    25    27   ar
    21    27    28   ar
    22    28    29   ar
    23    29    30   ar
    24    30    31    1
    25     3     4    2
    26     4     5    1
    27     5    32    1
    28    32    33   ar
    29    33    34   ar
    30    34    35   ar
    31    35    36   ar
    32    36    37   ar
    33    13    14   ar
    34    14    15   ar
    35    15     6   ar
    36    15    10   ar
    37     5     1    1
    38    37    32   ar
    39    30    24   ar
    40     8    16    1
    41     8    17    1
@<TRIPOS>MOLECULE
*****
 37 41 0 0 0
SMALL
GASTEIGER

@<TRIPOS>ATOM
      1 C          62.8423   88.7090   12.2271 C.2     1  UNL1        0.2240
      2 N          61.9902   89.1150   11.0612 N.2     1  UNL1       -0.0343
      3 C          61.4611   87.8679   10.4172 C.2     1  UNL1        0.3753
      4 N          61.9861   86.6911   11.1851 N.2     1  UNL1       -0.0510
      5 C          62.8397   87.2109   12.3036 C.3     1  UNL1        0.3017
      6 N          66.3457   92.5850   13.2882 N.ar    1  UNL1       -0.1822
      7 C          66.7065   93.1980   14.6088 C.ar    1  UNL1        0.2143
      8 N          67.7089   94.2921   14.8285 N.pl3   1  UNL1       -0.3275
      9 N          65.8890   92.5248   15.6711 N.ar    1  UNL1       -0.2126
     10 C          65.0230   91.4958   15.0071 C.ar    1  UNL1        0.1017
     11 C          64.0138   90.5297   15.5531 C.ar    1  UNL1        0.0208
     12 C          63.2869   89.6008   14.6265 C.ar    1  UNL1        0.0052
     13 C          63.5692   89.6380   13.1538 C.ar    1  UNL1        0.0450
     14 C          64.5783   90.6040   12.6077 C.ar    1  UNL1        0.0241
     15 C          65.3052   91.5329   13.5343 C.ar    1  UNL1        0.1027
     16 H          68.1982   94.6723   14.0635 H       1  UNL1        0.1451
     17 H          67.8773   94.6301   15.7378 H       1  UNL1        0.1451
     18 S          66.9239   92.9584   11.9554 S.O2    1  UNL1        0.0667
     19 O          65.7102   93.7895   11.6618 O.2     1  UNL1       -0.1521
     20 O          68.1375   92.1274   12.2491 O.2     1  UNL1       -0.1521
     21 C          67.2027   94.6747   10.0249 C.3     1  UNL1        0.0275
     22 C          67.5020   93.3319   10.6226 C.3     1  UNL1        0.1516
     23 C          68.3795   92.3626    9.8876 C.3     1  UNL1        0.0275
     24 C          60.5644   87.8081    9.2162 C.ar    1  UNL1        0.1426
     25 C          60.2742   86.4899    8.5618 C.ar    1  UNL1        0.1497
     26 F          60.8807   85.2316    9.1084 F       1  UNL1       -0.2038
     27 C          59.3775   86.4301    7.3608 C.ar    1  UNL1        0.0300
     28 C          58.7711   87.6885    6.8143 C.ar    1  UNL1        0.0046
     29 C          59.0613   89.0066    7.4687 C.ar    1  UNL1        0.0300
     30 C          59.9580   89.0665    8.6696 C.ar    1  UNL1        0.1497
     31 F          60.2482   90.3846    9.3241 F       1  UNL1       -0.2038
     32 C          63.5636   86.3788   13.3202 C.ar    1  UNL1        0.0343
     33 C          64.3781   87.0430   14.3905 C.ar    1  UNL1        0.0003
     34 C          65.1020   86.2109   15.4071 C.ar    1  UNL1       -0.0002
     35 C          65.0115   84.7145   15.3534 C.ar    1  UNL1       -0.0000
     36 C          64.1971   84.0504   14.2831 C.ar    1  UNL1       -0.0002
     37 C          63.4732   84.8825   13.2665 C.ar    1  UNL1        0.0003
@<TRIPOS>BOND
     1    21    22    1
     2    22    23    1
     3    22    18    1
     4    18    19    2
     5    18    20    2
     6    18     6    1
     7     6     7   ar
     8     7     8    1
     9     7     9   ar
    10     9    10   ar
    11    10    11   ar
    12    11    12   ar
    13    12    13   ar
    14    13     1    1
    15     1     2    2
    16     2     3    1
    17     3    24    1
    18    24    25   ar
    19    25    26    1
    20    25    27   ar
    21    27    28   ar
    22    28    29   ar
    23    29    30   ar
    24    30    31    1
    25     3     4    2
    26     4     5    1
    27     5    32    1
    28    32    33   ar
    29    33    34   ar
    30    34    35   ar
    31    35    36   ar
    32    36    37   ar
    33    13    14   ar
    34    14    15   ar
    35    15     6   ar
    36    15    10   ar
    37     5     1    1
    38    37    32   ar
    39    30    24   ar
    40     8    16    1
    41     8    17    1
