@<TRIPOS>MOLECULE
*****
 33 36 0 0 0
SMALL
GASTEIGER

@<TRIPOS>ATOM
      1 C          64.2234   90.8441   14.3541 C.2     1  UNL1        0.2301
      2 O          65.4347   91.7283   14.3242 O.2     1  UNL1       -0.2745
      3 N          63.3986   90.6599   13.1149 N.am    1  UNL1       -0.2792
      4 C          63.7850   91.3598   11.8458 C.3     1  UNL1        0.0951
      5 C          62.9601   91.1755   10.6066 C.3     1  UNL1        0.0410
      6 C          61.7488   90.2913   10.6365 C.3     1  UNL1        0.0724
      7 C          61.3623   89.5914   11.9057 C.3     1  UNL1        0.0410
      8 C          62.1872   89.7756   13.1449 C.3     1  UNL1        0.0951
      9 N          60.9239   90.1071    9.3973 N.pl3   1  UNL1       -0.3339
     10 H          60.5453   90.8906    8.9370 H       1  UNL1        0.1468
     11 C          60.6758   88.7290    8.8596 C.ar    1  UNL1        0.0469
     12 C          59.4642   88.4595    8.0173 C.ar    1  UNL1        0.0144
     13 C          59.2161   87.0813    7.4795 C.ar    1  UNL1        0.0036
     14 C          60.1796   85.9727    7.7839 C.ar    1  UNL1        0.0297
     15 C          61.3912   86.2423    8.6263 C.ar    1  UNL1        0.1414
     16 F          62.3547   85.1337    8.9307 F       1  UNL1       -0.2041
     17 C          61.6393   87.6204    9.1640 C.ar    1  UNL1        0.0439
     18 C          63.8370   90.1442   15.6233 C.3     1  UNL1        0.1116
     19 C          63.7764   85.6474   15.7841 C.ar    1  UNL1       -0.0062
     20 C          63.0388   86.4449   16.8186 C.ar    1  UNL1       -0.0032
     21 C          63.0590   87.9438   16.7650 C.ar    1  UNL1       -0.0041
     22 C          63.8168   88.6453   15.6769 C.ar    1  UNL1       -0.0131
     23 C          64.5544   87.8478   14.6425 C.ar    1  UNL1       -0.0041
     24 C          64.5342   86.3489   14.6961 C.ar    1  UNL1       -0.0032
     25 C          63.7562   84.1485   15.8377 C.3     1  UNL1        0.0992
     26 C          64.4744   82.9515   10.8325 C.3     1  UNL1        0.0186
     27 C          63.7277   82.7613   12.1195 C.3     1  UNL1        0.0703
     28 C          64.1153   83.5500   13.3351 C.3     1  UNL1        0.0882
     29 N          63.3686   83.3597   14.6221 N.3     1  UNL1       -0.2666
     30 C          62.2344   82.3808   14.6935 C.3     1  UNL1        0.0897
     31 C          61.8468   81.5921   13.4779 C.3     1  UNL1        0.0861
     32 N          62.5935   81.7823   12.1909 N.3     1  UNL1       -0.2963
     33 H          61.9086   82.0738   11.4935 H       1  UNL1        0.1233
@<TRIPOS>BOND
     1    27    26    1
     2    27    28    1
     3    28    29    1
     4    29    25    1
     5    25    19    1
     6    19    20   ar
     7    20    21   ar
     8    21    22   ar
     9    22    18    1
    10    18     1    1
    11     1     2    2
    12     1     3   am
    13     3     4    1
    14     4     5    1
    15     5     6    1
    16     6     9    1
    17     9    11    1
    18    11    12   ar
    19    12    13   ar
    20    13    14   ar
    21    14    15   ar
    22    15    16    1
    23    15    17   ar
    24     6     7    1
    25     7     8    1
    26    22    23   ar
    27    23    24   ar
    28    29    30    1
    29    30    31    1
    30    31    32    1
    31    32    27    1
    32    24    19   ar
    33     8     3    1
    34    17    11   ar
    35     9    10    1
    36    32    33    1
@<TRIPOS>MOLECULE
*****
 33 36 0 0 0
SMALL
GASTEIGER

@<TRIPOS>ATOM
      1 C          60.7658   88.8002    9.6601 C.2     1  UNL1        0.2301
      2 O          60.0863   89.0767    8.3518 O.2     1  UNL1       -0.2745
      3 N          61.4428   87.4815    9.8896 N.am    1  UNL1       -0.2792
      4 C          61.4402   86.4393    8.8109 C.3     1  UNL1        0.0951
      5 C          62.1172   85.1206    9.0404 C.3     1  UNL1        0.0410
      6 C          62.7967   84.8440   10.3487 C.3     1  UNL1        0.0724
      7 C          62.7994   85.8863   11.4275 C.3     1  UNL1        0.0410
      8 C          62.1224   87.2050   11.1980 C.3     1  UNL1        0.0951
      9 N          63.4737   83.5253   10.5782 N.pl3   1  UNL1       -0.3339
     10 H          64.1610   83.2086    9.9485 H       1  UNL1        0.1468
     11 C          63.1035   82.6891   11.7672 C.ar    1  UNL1        0.0469
     12 C          62.8653   81.2172   11.6040 C.ar    1  UNL1        0.0144
     13 C          62.4951   80.3809   12.7930 C.ar    1  UNL1        0.0036
     14 C          62.3631   81.0167   14.1452 C.ar    1  UNL1        0.0297
     15 C          62.6013   82.4887   14.3084 C.ar    1  UNL1        0.1414
     16 F          62.4693   83.1244   15.6605 F       1  UNL1       -0.2041
     17 C          62.9715   83.3249   13.1194 C.ar    1  UNL1        0.0439
     18 C          60.7685   89.8425   10.7389 C.3     1  UNL1        0.1116
     19 C          64.6142   91.8719   11.8973 C.ar    1  UNL1       -0.0062
     20 C          63.8106   91.1411   12.9319 C.ar    1  UNL1       -0.0032
     21 C          62.5287   90.4646   12.5458 C.ar    1  UNL1       -0.0041
     22 C          62.0504   90.5189   11.1250 C.ar    1  UNL1       -0.0131
     23 C          62.8540   91.2497   10.0905 C.ar    1  UNL1       -0.0041
     24 C          64.1359   91.9262   10.4767 C.ar    1  UNL1       -0.0032
     25 C          65.8961   92.5484   12.2834 C.3     1  UNL1        0.0992
     26 C          67.1237   96.8526    9.6438 C.3     1  UNL1        0.0186
     27 C          67.3358   95.3937    9.9208 C.3     1  UNL1        0.0703
     28 C          66.5100   94.7005   10.9636 C.3     1  UNL1        0.0882
     29 N          66.7220   93.2416   11.2405 N.3     1  UNL1       -0.2666
     30 C          67.7599   92.4759   10.4747 C.3     1  UNL1        0.0897
     31 C          68.5857   93.1691    9.4319 C.3     1  UNL1        0.0861
     32 N          68.3736   94.6280    9.1550 N.3     1  UNL1       -0.2963
     33 H          68.1297   94.7079    8.1678 H       1  UNL1        0.1233
@<TRIPOS>BOND
     1    27    26    1
     2    27    28    1
     3    28    29    1
     4    29    25    1
     5    25    19    1
     6    19    20   ar
     7    20    21   ar
     8    21    22   ar
     9    22    18    1
    10    18     1    1
    11     1     2    2
    12     1     3   am
    13     3     4    1
    14     4     5    1
    15     5     6    1
    16     6     9    1
    17     9    11    1
    18    11    12   ar
    19    12    13   ar
    20    13    14   ar
    21    14    15   ar
    22    15    16    1
    23    15    17   ar
    24     6     7    1
    25     7     8    1
    26    22    23   ar
    27    23    24   ar
    28    29    30    1
    29    30    31    1
    30    31    32    1
    31    32    27    1
    32    24    19   ar
    33     8     3    1
    34    17    11   ar
    35     9    10    1
    36    32    33    1
@<TRIPOS>MOLECULE
*****
 33 36 0 0 0
SMALL
GASTEIGER

@<TRIPOS>ATOM
      1 C          63.5941   89.9881   15.5739 C.2     1  UNL1        0.2301
      2 O          63.1367   90.7105   16.8063 O.2     1  UNL1       -0.2745
      3 N          63.7050   88.4922   15.5791 N.am    1  UNL1       -0.2792
      4 C          63.3584   87.7187   16.8166 C.3     1  UNL1        0.0951
      5 C          63.4693   86.2228   16.8218 C.3     1  UNL1        0.0410
      6 C          63.9267   85.5004   15.5894 C.3     1  UNL1        0.0724
      7 C          64.2733   86.2739   14.3517 C.3     1  UNL1        0.0410
      8 C          64.1624   87.7698   14.3466 C.3     1  UNL1        0.0951
      9 N          64.0375   84.0045   15.5945 N.pl3   1  UNL1       -0.3339
     10 H          64.3878   83.5396   16.3885 H       1  UNL1        0.1468
     11 C          63.6147   83.2170   14.3900 C.ar    1  UNL1        0.0469
     12 C          62.4357   82.2935   14.4737 C.ar    1  UNL1        0.0144
     13 C          62.0129   81.5059   13.2692 C.ar    1  UNL1        0.0036
     14 C          62.7691   81.6419   11.9809 C.ar    1  UNL1        0.0297
     15 C          63.9481   82.5654   11.8972 C.ar    1  UNL1        0.1414
     16 F          64.7043   82.7014   10.6089 F       1  UNL1       -0.2041
     17 C          64.3709   83.3530   13.1017 C.ar    1  UNL1        0.0439
     18 C          63.9407   90.7616   14.3363 C.3     1  UNL1        0.1116
     19 C          61.5853   90.1292   10.5545 C.ar    1  UNL1       -0.0062
     20 C          62.9459   90.7579   10.4944 C.ar    1  UNL1       -0.0032
     21 C          63.7310   90.9687   11.7550 C.ar    1  UNL1       -0.0041
     22 C          63.1556   90.5508   13.0757 C.ar    1  UNL1       -0.0131
     23 C          61.7950   89.9221   13.1358 C.ar    1  UNL1       -0.0041
     24 C          61.0099   89.7113   11.8752 C.ar    1  UNL1       -0.0032
     25 C          60.8001   89.9183    9.2939 C.3     1  UNL1        0.0992
     26 C          62.5569   85.0743    8.6235 C.3     1  UNL1        0.0186
     27 C          61.4938   86.1114    8.4130 C.3     1  UNL1        0.0703
     28 C          61.6785   87.4963    8.9587 C.3     1  UNL1        0.0882
     29 N          60.6154   88.5334    8.7481 N.3     1  UNL1       -0.2666
     30 C          59.3676   88.1855    7.9919 C.3     1  UNL1        0.0897
     31 C          59.1829   86.8006    7.4462 C.3     1  UNL1        0.0861
     32 N          60.2460   85.7635    7.6567 N.3     1  UNL1       -0.2963
     33 H          60.5400   85.4512    6.7313 H       1  UNL1        0.1233
@<TRIPOS>BOND
     1    27    26    1
     2    27    28    1
     3    28    29    1
     4    29    25    1
     5    25    19    1
     6    19    20   ar
     7    20    21   ar
     8    21    22   ar
     9    22    18    1
    10    18     1    1
    11     1     2    2
    12     1     3   am
    13     3     4    1
    14     4     5    1
    15     5     6    1
    16     6     9    1
    17     9    11    1
    18    11    12   ar
    19    12    13   ar
    20    13    14   ar
    21    14    15   ar
    22    15    16    1
    23    15    17   ar
    24     6     7    1
    25     7     8    1
    26    22    23   ar
    27    23    24   ar
    28    29    30    1
    29    30    31    1
    30    31    32    1
    31    32    27    1
    32    24    19   ar
    33     8     3    1
    34    17    11   ar
    35     9    10    1
    36    32    33    1
@<TRIPOS>MOLECULE
*****
 33 36 0 0 0
SMALL
GASTEIGER

@<TRIPOS>ATOM
      1 C          60.5364   88.6420    9.4437 C.2     1  UNL1        0.2301
      2 O          59.8083   88.9636    8.1723 O.2     1  UNL1       -0.2745
      3 N          61.3185   87.3672    9.5581 N.am    1  UNL1       -0.2792
      4 C          61.3726   86.4140    8.4012 C.3     1  UNL1        0.0951
      5 C          62.1548   85.1392    8.5156 C.3     1  UNL1        0.0410
      6 C          62.8828   84.8175    9.7870 C.3     1  UNL1        0.0724
      7 C          62.8288   85.7707   10.9440 C.3     1  UNL1        0.0410
      8 C          62.0466   87.0455   10.8296 C.3     1  UNL1        0.0951
      9 N          63.6650   83.5427    9.9014 N.pl3   1  UNL1       -0.3339
     10 H          64.1940   83.2194    9.1367 H       1  UNL1        0.1468
     11 C          63.6411   82.7605   11.1811 C.ar    1  UNL1        0.0469
     12 C          64.2960   83.3149   12.4113 C.ar    1  UNL1        0.0144
     13 C          64.2721   82.5327   13.6911 C.ar    1  UNL1        0.0036
     14 C          63.5934   81.1959   13.7404 C.ar    1  UNL1        0.0297
     15 C          62.9385   80.6414   12.5100 C.ar    1  UNL1        0.1414
     16 F          62.2598   79.3047   12.5593 F       1  UNL1       -0.2041
     17 C          62.9624   81.4237   11.2304 C.ar    1  UNL1        0.0439
     18 C          60.4824   89.5952   10.6007 C.3     1  UNL1        0.1116
     19 C          64.2206   91.7012   11.9573 C.ar    1  UNL1       -0.0062
     20 C          63.8058   91.7626   10.5171 C.ar    1  UNL1       -0.0032
     21 C          62.5597   91.0606   10.0649 C.ar    1  UNL1       -0.0041
     22 C          61.7284   90.2972   11.0529 C.ar    1  UNL1       -0.0131
     23 C          62.1432   90.2357   12.4931 C.ar    1  UNL1       -0.0041
     24 C          63.3893   90.9377   12.9453 C.ar    1  UNL1       -0.0032
     25 C          65.4667   92.4031   12.4095 C.3     1  UNL1        0.0992
     26 C          69.0732   92.3519    8.6691 C.3     1  UNL1        0.0186
     27 C          68.1206   93.1106    9.5449 C.3     1  UNL1        0.0703
     28 C          67.2699   92.3776   10.5393 C.3     1  UNL1        0.0882
     29 N          66.3174   93.1363   11.4151 N.3     1  UNL1       -0.2666
     30 C          66.2155   94.6281   11.2964 C.3     1  UNL1        0.0897
     31 C          67.0661   95.3611   10.3020 C.3     1  UNL1        0.0861
     32 N          68.0187   94.6024    9.4262 N.3     1  UNL1       -0.2963
     33 H          68.9496   94.9767    9.6101 H       1  UNL1        0.1233
@<TRIPOS>BOND
     1    27    26    1
     2    27    28    1
     3    28    29    1
     4    29    25    1
     5    25    19    1
     6    19    20   ar
     7    20    21   ar
     8    21    22   ar
     9    22    18    1
    10    18     1    1
    11     1     2    2
    12     1     3   am
    13     3     4    1
    14     4     5    1
    15     5     6    1
    16     6     9    1
    17     9    11    1
    18    11    12   ar
    19    12    13   ar
    20    13    14   ar
    21    14    15   ar
    22    15    16    1
    23    15    17   ar
    24     6     7    1
    25     7     8    1
    26    22    23   ar
    27    23    24   ar
    28    29    30    1
    29    30    31    1
    30    31    32    1
    31    32    27    1
    32    24    19   ar
    33     8     3    1
    34    17    11   ar
    35     9    10    1
    36    32    33    1
@<TRIPOS>MOLECULE
*****
 33 36 0 0 0
SMALL
GASTEIGER

@<TRIPOS>ATOM
      1 C          64.1420   84.2471   14.6345 C.2     1  UNL1        0.2301
      2 O          65.2135   83.2387   14.9261 O.2     1  UNL1       -0.2745
      3 N          63.6757   84.4595   13.2247 N.am    1  UNL1       -0.2792
      4 C          64.2807   83.6636   12.1066 C.3     1  UNL1        0.0951
      5 C          63.8144   83.8760   10.6969 C.3     1  UNL1        0.0410
      6 C          62.7429   84.8844   10.4053 C.3     1  UNL1        0.0724
      7 C          62.1378   85.6804   11.5234 C.3     1  UNL1        0.0410
      8 C          62.6042   85.4680   12.9332 C.3     1  UNL1        0.0951
      9 N          62.2766   85.0968    8.9955 N.pl3   1  UNL1       -0.3339
     10 H          62.6037   84.5108    8.2752 H       1  UNL1        0.1468
     11 C          61.3118   86.2021    8.6832 C.ar    1  UNL1        0.0469
     12 C          60.1409   85.9432    7.7821 C.ar    1  UNL1        0.0144
     13 C          59.1761   87.0485    7.4698 C.ar    1  UNL1        0.0036
     14 C          59.3822   88.4126    8.0586 C.ar    1  UNL1        0.0297
     15 C          60.5531   88.6715    8.9597 C.ar    1  UNL1        0.1414
     16 F          60.7591   90.0356    9.5485 F       1  UNL1       -0.2041
     17 C          61.5179   87.5662    9.2720 C.ar    1  UNL1        0.0439
     18 C          63.5369   85.0431   15.7527 C.3     1  UNL1        0.1116
     19 C          63.8299   89.5335   15.7328 C.ar    1  UNL1       -0.0062
     20 C          64.4869   88.7342   14.6467 C.ar    1  UNL1       -0.0032
     21 C          64.3893   87.2374   14.6533 C.ar    1  UNL1       -0.0041
     22 C          63.6346   86.5399   15.7460 C.ar    1  UNL1       -0.0131
     23 C          62.9776   87.3392   16.8321 C.ar    1  UNL1       -0.0041
     24 C          63.0753   88.8360   16.8255 C.ar    1  UNL1       -0.0032
     25 C          63.9276   91.0303   15.7262 C.3     1  UNL1        0.0992
     26 C          68.4324   93.6195   15.7817 C.3     1  UNL1        0.0186
     27 C          67.2993   93.0002   15.0183 C.3     1  UNL1        0.0703
     28 C          66.1800   92.3249   15.7539 C.3     1  UNL1        0.0882
     29 N          65.0470   91.7056   14.9906 N.3     1  UNL1       -0.2666
     30 C          65.0332   91.7616   13.4917 C.3     1  UNL1        0.0897
     31 C          66.1525   92.4369   12.7562 C.3     1  UNL1        0.0861
     32 N          67.2856   93.0562   13.5195 N.3     1  UNL1       -0.2963
     33 H          67.3100   94.0427   13.2615 H       1  UNL1        0.1233
@<TRIPOS>BOND
     1    27    26    1
     2    27    28    1
     3    28    29    1
     4    29    25    1
     5    25    19    1
     6    19    20   ar
     7    20    21   ar
     8    21    22   ar
     9    22    18    1
    10    18     1    1
    11     1     2    2
    12     1     3   am
    13     3     4    1
    14     4     5    1
    15     5     6    1
    16     6     9    1
    17     9    11    1
    18    11    12   ar
    19    12    13   ar
    20    13    14   ar
    21    14    15   ar
    22    15    16    1
    23    15    17   ar
    24     6     7    1
    25     7     8    1
    26    22    23   ar
    27    23    24   ar
    28    29    30    1
    29    30    31    1
    30    31    32    1
    31    32    27    1
    32    24    19   ar
    33     8     3    1
    34    17    11   ar
    35     9    10    1
    36    32    33    1
@<TRIPOS>MOLECULE
*****
 33 36 0 0 0
SMALL
GASTEIGER

@<TRIPOS>ATOM
      1 C          63.2211   88.4251   16.0262 C.2     1  UNL1        0.2301
      2 O          61.8941   88.8930   16.5459 O.2     1  UNL1       -0.2745
      3 N          63.4441   86.9693   15.7417 N.am    1  UNL1       -0.2792
      4 C          62.3401   85.9814   15.9769 C.3     1  UNL1        0.0951
      5 C          62.5631   84.5256   15.6925 C.3     1  UNL1        0.0410
      6 C          63.8900   84.0577   15.1728 C.3     1  UNL1        0.0724
      7 C          64.9941   85.0455   14.9376 C.3     1  UNL1        0.0410
      8 C          64.7711   86.5013   15.2220 C.3     1  UNL1        0.0951
      9 N          64.1130   82.6019   14.8883 N.pl3   1  UNL1       -0.3339
     10 H          64.4725   82.0126   15.5903 H       1  UNL1        0.1468
     11 C          63.7883   82.0439   13.5344 C.ar    1  UNL1        0.0469
     12 C          63.0815   80.7262   13.4161 C.ar    1  UNL1        0.0144
     13 C          62.7567   80.1682   12.0621 C.ar    1  UNL1        0.0036
     14 C          63.1387   80.9280   10.8265 C.ar    1  UNL1        0.0297
     15 C          63.8455   82.2457   10.9448 C.ar    1  UNL1        0.1414
     16 F          64.2276   83.0055    9.7092 F       1  UNL1       -0.2041
     17 C          64.1703   82.8037   12.2988 C.ar    1  UNL1        0.0439
     18 C          64.3251   89.4129   15.7910 C.3     1  UNL1        0.1116
     19 C          64.5194   91.6892   11.9140 C.ar    1  UNL1       -0.0062
     20 C          63.5344   90.5697   12.0779 C.ar    1  UNL1       -0.0032
     21 C          63.4697   89.8109   13.3703 C.ar    1  UNL1       -0.0041
     22 C          64.3899   90.1717   14.4987 C.ar    1  UNL1       -0.0131
     23 C          65.3747   91.2911   14.3347 C.ar    1  UNL1       -0.0041
     24 C          65.4395   92.0498   13.0424 C.ar    1  UNL1       -0.0032
     25 C          64.5841   92.4479   10.6217 C.3     1  UNL1        0.0992
     26 C          67.1504   96.8321    9.5295 C.3     1  UNL1        0.0186
     27 C          67.1335   95.3397    9.6793 C.3     1  UNL1        0.0703
     28 C          65.8673   94.6400   10.0756 C.3     1  UNL1        0.0882
     29 N          65.8504   93.1476   10.2254 N.3     1  UNL1       -0.2666
     30 C          67.0997   92.3549    9.9789 C.3     1  UNL1        0.0897
     31 C          68.3659   93.0546    9.5827 C.3     1  UNL1        0.0861
     32 N          68.3828   94.5470    9.4329 N.3     1  UNL1       -0.2963
     33 H          68.6720   94.7435    8.4746 H       1  UNL1        0.1233
@<TRIPOS>BOND
     1    27    26    1
     2    27    28    1
     3    28    29    1
     4    29    25    1
     5    25    19    1
     6    19    20   ar
     7    20    21   ar
     8    21    22   ar
     9    22    18    1
    10    18     1    1
    11     1     2    2
    12     1     3   am
    13     3     4    1
    14     4     5    1
    15     5     6    1
    16     6     9    1
    17     9    11    1
    18    11    12   ar
    19    12    13   ar
    20    13    14   ar
    21    14    15   ar
    22    15    16    1
    23    15    17   ar
    24     6     7    1
    25     7     8    1
    26    22    23   ar
    27    23    24   ar
    28    29    30    1
    29    30    31    1
    30    31    32    1
    31    32    27    1
    32    24    19   ar
    33     8     3    1
    34    17    11   ar
    35     9    10    1
    36    32    33    1
@<TRIPOS>MOLECULE
*****
 33 36 0 0 0
SMALL
GASTEIGER

@<TRIPOS>ATOM
      1 C          60.6664   88.4660    9.3923 C.2     1  UNL1        0.2301
      2 O          59.9727   88.7464    8.0923 O.2     1  UNL1       -0.2745
      3 N          61.4299   87.1877    9.5745 N.am    1  UNL1       -0.2792
      4 C          61.4998   86.1900    8.4567 C.3     1  UNL1        0.0951
      5 C          62.2633   84.9118    8.6389 C.3     1  UNL1        0.0410
      6 C          62.9570   84.6313    9.9389 C.3     1  UNL1        0.0724
      7 C          62.8871   85.6291   11.0568 C.3     1  UNL1        0.0410
      8 C          62.1236   86.9073   10.8746 C.3     1  UNL1        0.0951
      9 N          63.7205   83.3531   10.1211 N.pl3   1  UNL1       -0.3339
     10 H          64.3423   83.0472    9.4218 H       1  UNL1        0.1468
     11 C          63.5366   82.5410   11.3687 C.ar    1  UNL1        0.0469
     12 C          62.8997   81.1850   11.2938 C.ar    1  UNL1        0.0144
     13 C          62.7158   80.3728   12.5415 C.ar    1  UNL1        0.0036
     14 C          63.1689   80.9166   13.8640 C.ar    1  UNL1        0.0297
     15 C          63.8058   82.2726   13.9388 C.ar    1  UNL1        0.1414
     16 F          64.2589   82.8165   15.2613 F       1  UNL1       -0.2041
     17 C          63.9897   83.0848   12.6912 C.ar    1  UNL1        0.0439
     18 C          60.5965   89.4637   10.5102 C.3     1  UNL1        0.1116
     19 C          64.3073   91.6557   11.8047 C.ar    1  UNL1       -0.0062
     20 C          63.8620   91.7150   10.3734 C.ar    1  UNL1       -0.0032
     21 C          62.6251   90.9843    9.9420 C.ar    1  UNL1       -0.0041
     22 C          61.8335   90.1944   10.9417 C.ar    1  UNL1       -0.0131
     23 C          62.2788   90.1351   12.3728 C.ar    1  UNL1       -0.0041
     24 C          63.5157   90.8658   12.8043 C.ar    1  UNL1       -0.0032
     25 C          65.5442   92.3864   12.2361 C.3     1  UNL1        0.0992
     26 C          68.7654   93.9240   16.0123 C.3     1  UNL1        0.0186
     27 C          67.4740   93.2928   15.5834 C.3     1  UNL1        0.0703
     28 C          67.1548   93.1552   14.1243 C.3     1  UNL1        0.0882
     29 N          65.8634   92.5240   13.6953 N.3     1  UNL1       -0.2666
     30 C          64.8913   92.0303   14.7255 C.3     1  UNL1        0.0897
     31 C          65.2106   92.1680   16.1846 C.3     1  UNL1        0.0861
     32 N          66.5019   92.7992   16.6136 N.3     1  UNL1       -0.2963
     33 H          66.9957   92.1064   17.1763 H       1  UNL1        0.1233
@<TRIPOS>BOND
     1    27    26    1
     2    27    28    1
     3    28    29    1
     4    29    25    1
     5    25    19    1
     6    19    20   ar
     7    20    21   ar
     8    21    22   ar
     9    22    18    1
    10    18     1    1
    11     1     2    2
    12     1     3   am
    13     3     4    1
    14     4     5    1
    15     5     6    1
    16     6     9    1
    17     9    11    1
    18    11    12   ar
    19    12    13   ar
    20    13    14   ar
    21    14    15   ar
    22    15    16    1
    23    15    17   ar
    24     6     7    1
    25     7     8    1
    26    22    23   ar
    27    23    24   ar
    28    29    30    1
    29    30    31    1
    30    31    32    1
    31    32    27    1
    32    24    19   ar
    33     8     3    1
    34    17    11   ar
    35     9    10    1
    36    32    33    1
@<TRIPOS>MOLECULE
*****
 33 36 0 0 0
SMALL
GASTEIGER

@<TRIPOS>ATOM
      1 C          63.8164   82.9744   14.5527 C.2     1  UNL1        0.2301
      2 O          64.6154   81.7136   14.7004 O.2     1  UNL1       -0.2745
      3 N          63.5545   83.5409   13.1886 N.am    1  UNL1       -0.2792
      4 C          64.0916   82.8465   11.9724 C.3     1  UNL1        0.0951
      5 C          63.8297   83.4130   10.6084 C.3     1  UNL1        0.0410
      6 C          63.0307   84.6738   10.4606 C.3     1  UNL1        0.0724
      7 C          62.4936   85.3682   11.6769 C.3     1  UNL1        0.0410
      8 C          62.7555   84.8018   13.0409 C.3     1  UNL1        0.0951
      9 N          62.7688   85.2402    9.0966 N.pl3   1  UNL1       -0.3339
     10 H          63.2303   84.8663    8.3114 H       1  UNL1        0.1468
     11 C          61.8039   86.3763    8.9289 C.ar    1  UNL1        0.0469
     12 C          62.1091   87.7148    9.5332 C.ar    1  UNL1        0.0144
     13 C          61.1441   88.8510    9.3655 C.ar    1  UNL1        0.0036
     14 C          59.8741   88.6486    8.5935 C.ar    1  UNL1        0.0297
     15 C          59.5690   87.3100    7.9892 C.ar    1  UNL1        0.1414
     16 F          58.2989   87.1076    7.2171 F       1  UNL1       -0.2041
     17 C          60.5339   86.1739    8.1569 C.ar    1  UNL1        0.0439
     18 C          63.2793   83.6689   15.7689 C.3     1  UNL1        0.1116
     19 C          63.4914   88.1533   16.0771 C.ar    1  UNL1       -0.0062
     20 C          64.3675   87.4264   15.1002 C.ar    1  UNL1       -0.0032
     21 C          64.2968   85.9316   14.9975 C.ar    1  UNL1       -0.0041
     22 C          63.3500   85.1637   15.8717 C.ar    1  UNL1       -0.0131
     23 C          62.4740   85.8906   16.8484 C.ar    1  UNL1       -0.0041
     24 C          62.5447   87.3854   16.9512 C.ar    1  UNL1       -0.0032
     25 C          63.5622   89.6481   16.1798 C.3     1  UNL1        0.0992
     26 C          63.3439   91.0433   11.1792 C.3     1  UNL1        0.0186
     27 C          63.9839   91.1520   12.5315 C.3     1  UNL1        0.0703
     28 C          63.4531   90.3457   13.6795 C.3     1  UNL1        0.0882
     29 N          64.0931   90.4545   15.0317 N.3     1  UNL1       -0.2666
     30 C          65.2639   91.3696   15.2359 C.3     1  UNL1        0.0897
     31 C          65.7947   92.1759   14.0879 C.3     1  UNL1        0.0861
     32 N          65.1547   92.0671   12.7357 N.3     1  UNL1       -0.2963
     33 H          65.8826   91.7628   12.0891 H       1  UNL1        0.1233
@<TRIPOS>BOND
     1    27    26    1
     2    27    28    1
     3    28    29    1
     4    29    25    1
     5    25    19    1
     6    19    20   ar
     7    20    21   ar
     8    21    22   ar
     9    22    18    1
    10    18     1    1
    11     1     2    2
    12     1     3   am
    13     3     4    1
    14     4     5    1
    15     5     6    1
    16     6     9    1
    17     9    11    1
    18    11    12   ar
    19    12    13   ar
    20    13    14   ar
    21    14    15   ar
    22    15    16    1
    23    15    17   ar
    24     6     7    1
    25     7     8    1
    26    22    23   ar
    27    23    24   ar
    28    29    30    1
    29    30    31    1
    30    31    32    1
    31    32    27    1
    32    24    19   ar
    33     8     3    1
    34    17    11   ar
    35     9    10    1
    36    32    33    1
@<TRIPOS>MOLECULE
*****
 33 36 0 0 0
SMALL
GASTEIGER

@<TRIPOS>ATOM
      1 C          63.0973   88.0762   16.7540 C.2     1  UNL1        0.2301
      2 O          63.0017   87.8237   18.2295 O.2     1  UNL1       -0.2745
      3 N          63.5744   86.9897   15.8365 N.am    1  UNL1       -0.2792
      4 C          63.9559   85.6506   16.3944 C.3     1  UNL1        0.0951
      5 C          64.4329   84.5641   15.4768 C.3     1  UNL1        0.0410
      6 C          64.5285   84.8167   14.0014 C.3     1  UNL1        0.0724
      7 C          64.1471   86.1558   13.4434 C.3     1  UNL1        0.0410
      8 C          63.6700   87.2423   14.3609 C.3     1  UNL1        0.0951
      9 N          65.0056   83.7302   13.0838 N.pl3   1  UNL1       -0.3339
     10 H          65.8800   83.8105   12.6386 H       1  UNL1        0.1468
     11 C          64.1505   82.5213   12.8446 C.ar    1  UNL1        0.0469
     12 C          63.5211   81.8067   14.0035 C.ar    1  UNL1        0.0144
     13 C          62.6659   80.5977   13.7644 C.ar    1  UNL1        0.0036
     14 C          62.4402   80.1034   12.3663 C.ar    1  UNL1        0.0297
     15 C          63.0696   80.8181   11.2073 C.ar    1  UNL1        0.1414
     16 F          62.8439   80.3238    9.8092 F       1  UNL1       -0.2041
     17 C          63.9247   82.0270   11.4465 C.ar    1  UNL1        0.0439
     18 C          62.7159   89.4154   16.1960 C.3     1  UNL1        0.1116
     19 C          65.8787   92.1296   14.4993 C.ar    1  UNL1       -0.0062
     20 C          65.3021   91.0311   13.6562 C.ar    1  UNL1       -0.0032
     21 C          64.2478   90.1263   14.2218 C.ar    1  UNL1       -0.0041
     22 C          63.7701   90.3201   15.6304 C.ar    1  UNL1       -0.0131
     23 C          64.3468   91.4186   16.4735 C.ar    1  UNL1       -0.0041
     24 C          65.4010   92.3234   15.9079 C.ar    1  UNL1       -0.0032
     25 C          66.9330   93.0344   13.9337 C.3     1  UNL1        0.0992
     26 C          68.3890   91.9900    9.0562 C.3     1  UNL1        0.0186
     27 C          67.6507   92.8547   10.0346 C.3     1  UNL1        0.0703
     28 C          67.6610   92.5122   11.4949 C.3     1  UNL1        0.0882
     29 N          66.9227   93.3769   12.4733 N.3     1  UNL1       -0.2666
     30 C          66.1741   94.5841   11.9914 C.3     1  UNL1        0.0897
     31 C          66.1638   94.9266   10.5310 C.3     1  UNL1        0.0861
     32 N          66.9021   94.0618    9.5527 N.3     1  UNL1       -0.2963
     33 H          67.5810   94.6614    9.0836 H       1  UNL1        0.1233
@<TRIPOS>BOND
     1    27    26    1
     2    27    28    1
     3    28    29    1
     4    29    25    1
     5    25    19    1
     6    19    20   ar
     7    20    21   ar
     8    21    22   ar
     9    22    18    1
    10    18     1    1
    11     1     2    2
    12     1     3   am
    13     3     4    1
    14     4     5    1
    15     5     6    1
    16     6     9    1
    17     9    11    1
    18    11    12   ar
    19    12    13   ar
    20    13    14   ar
    21    14    15   ar
    22    15    16    1
    23    15    17   ar
    24     6     7    1
    25     7     8    1
    26    22    23   ar
    27    23    24   ar
    28    29    30    1
    29    30    31    1
    30    31    32    1
    31    32    27    1
    32    24    19   ar
    33     8     3    1
    34    17    11   ar
    35     9    10    1
    36    32    33    1
