@<TRIPOS>MOLECULE
*****
 28 31 0 0 0
SMALL
GASTEIGER

@<TRIPOS>ATOM
      1 C          62.3189   88.3851   11.3271 C.ar    1  UNL1        0.0284
      2 C          63.1202   88.2293   12.5855 C.ar    1  UNL1        0.0027
      3 C          63.8790   89.3979   13.1410 C.ar    1  UNL1        0.0339
      4 C          63.8365   90.7224   12.4382 C.ar    1  UNL1        0.1311
      5 N          63.0351   90.8781   11.1797 N.ar    1  UNL1       -0.2035
      6 C          62.2764   89.7095   10.6241 C.ar    1  UNL1        0.2196
      7 F          61.4751   89.8654    9.3657 F       1  UNL1       -0.1835
      8 N          64.5952   91.8909   12.9937 N.pl3   1  UNL1       -0.3144
      9 H          64.1386   92.5449   13.5708 H       1  UNL1        0.1485
     10 C          66.0497   92.0631   12.6700 C.3     1  UNL1        0.1169
     11 C          66.4711   93.0268   11.6005 C.ar    1  UNL1        0.0166
     12 C          67.1964   92.5288   10.3857 C.ar    1  UNL1        0.0014
     13 C          67.6178   93.4925    9.3162 C.ar    1  UNL1        0.0305
     14 C          67.3138   94.9541    9.4615 C.ar    1  UNL1        0.1383
     15 CL         67.7351   95.9178    8.3920 Cl      1  UNL1       -0.0613
     16 N          66.5884   95.4521   10.6764 N.ar    1  UNL1       -0.2327
     17 C          66.1670   94.4884   11.7458 C.ar    1  UNL1        0.0972
     18 C          61.5602   87.2165   10.7715 C.3     1  UNL1        0.0603
     19 C          63.8593   83.0508   14.2576 C.3     1  UNL1        0.0307
     20 C          63.7617   83.3731   12.7959 C.2     1  UNL1        0.0074
     21 C          64.3857   82.4594   11.7831 C.2     1  UNL1        0.2278
     22 N          64.2881   82.7817   10.3214 N.2     1  UNL1       -0.0314
     23 C          63.5665   84.0177    9.8725 C.2     1  UNL1        0.3716
     24 N          63.3094   84.5910    8.5104 N.2     1  UNL1       -0.0311
     25 C          62.5266   85.8591    8.6814 C.2     1  UNL1        0.2319
     26 C          62.2998   86.0695   10.1491 C.2     1  UNL1        0.0328
     27 C          62.9425   84.9314   10.8853 C.2     1  UNL1        0.0704
     28 C          63.0401   84.6091   12.3470 C.3     1  UNL1        0.0598
@<TRIPOS>BOND
     1    19    20    1
     2    20    21    2
     3    21    22    1
     4    22    23    2
     5    23    24    1
     6    24    25    2
     7    25    26    1
     8    26    18    1
     9    18     1    1
    10     1     2   ar
    11     2     3   ar
    12     3     4   ar
    13     4     8    1
    14     8    10    1
    15    10    11    1
    16    11    12   ar
    17    12    13   ar
    18    13    14   ar
    19    14    15    1
    20    14    16   ar
    21    16    17   ar
    22     4     5   ar
    23     5     6   ar
    24     6     7    1
    25    26    27    2
    26    27    28    1
    27    28    20    1
    28    27    23    1
    29     6     1   ar
    30    17    11   ar
    31     8     9    1
@<TRIPOS>MOLECULE
*****
 28 31 0 0 0
SMALL
GASTEIGER

@<TRIPOS>ATOM
      1 C          64.1638   91.0619   12.3962 C.ar    1  UNL1        0.0284
      2 C          63.3896   90.9691   11.1149 C.ar    1  UNL1        0.0027
      3 C          62.5398   89.7646   10.8376 C.ar    1  UNL1        0.0339
      4 C          62.4641   88.6528   11.8417 C.ar    1  UNL1        0.1311
      5 N          63.2383   88.7457   13.1232 N.ar    1  UNL1       -0.2035
      6 C          64.0882   89.9502   13.4004 C.ar    1  UNL1        0.2196
      7 F          64.8623   90.0429   14.6819 F       1  UNL1       -0.1835
      8 N          61.6142   87.4483   11.5644 N.pl3   1  UNL1       -0.3144
      9 H          61.6675   86.6620   12.1543 H       1  UNL1        0.1485
     10 C          60.6832   87.4420   10.3883 C.3     1  UNL1        0.1169
     11 C          60.9979   86.6004    9.1872 C.ar    1  UNL1        0.0166
     12 C          62.3714   86.0227    9.0152 C.ar    1  UNL1        0.0014
     13 C          62.6861   85.1811    7.8141 C.ar    1  UNL1        0.0305
     14 C          61.6272   84.9171    6.7850 C.ar    1  UNL1        0.1383
     15 CL         61.9419   84.0755    5.5839 Cl      1  UNL1       -0.0613
     16 N          60.2536   85.4948    6.9571 N.ar    1  UNL1       -0.2327
     17 C          59.9390   86.3364    8.1581 C.ar    1  UNL1        0.0972
     18 C          65.0137   92.2664   12.6735 C.3     1  UNL1        0.0603
     19 C          65.1764   96.8560    8.9720 C.3     1  UNL1        0.0307
     20 C          66.0648   95.7328    9.4185 C.2     1  UNL1        0.0074
     21 C          67.4440   95.5943    8.8453 C.2     1  UNL1        0.2278
     22 N          68.3324   94.4711    9.2917 N.2     1  UNL1       -0.0314
     23 C          67.8416   93.4866   10.3114 C.2     1  UNL1        0.3716
     24 N          68.4861   92.2864   10.9393 N.2     1  UNL1       -0.0311
     25 C          67.5052   91.6833   11.9006 C.2     1  UNL1        0.2319
     26 C          66.2544   92.5106   11.8668 C.2     1  UNL1        0.0328
     27 C          66.4624   93.6252   10.8846 C.2     1  UNL1        0.0704
     28 C          65.5740   94.7483   10.4381 C.3     1  UNL1        0.0598
@<TRIPOS>BOND
     1    19    20    1
     2    20    21    2
     3    21    22    1
     4    22    23    2
     5    23    24    1
     6    24    25    2
     7    25    26    1
     8    26    18    1
     9    18     1    1
    10     1     2   ar
    11     2     3   ar
    12     3     4   ar
    13     4     8    1
    14     8    10    1
    15    10    11    1
    16    11    12   ar
    17    12    13   ar
    18    13    14   ar
    19    14    15    1
    20    14    16   ar
    21    16    17   ar
    22     4     5   ar
    23     5     6   ar
    24     6     7    1
    25    26    27    2
    26    27    28    1
    27    28    20    1
    28    27    23    1
    29     6     1   ar
    30    17    11   ar
    31     8     9    1
@<TRIPOS>MOLECULE
*****
 28 31 0 0 0
SMALL
GASTEIGER

@<TRIPOS>ATOM
      1 C          62.9632   84.6191   10.3453 C.ar    1  UNL1        0.0284
      2 C          62.1751   85.1958   11.4838 C.ar    1  UNL1        0.0027
      3 C          62.3607   84.6595   12.8723 C.ar    1  UNL1        0.0339
      4 C          63.3346   83.5464   13.1223 C.ar    1  UNL1        0.1311
      5 N          64.1228   82.9696   11.9838 N.ar    1  UNL1       -0.2035
      6 C          63.9371   83.5059   10.5953 C.ar    1  UNL1        0.2196
      7 F          64.7253   82.9291    9.4569 F       1  UNL1       -0.1835
      8 N          63.5202   83.0101   14.5108 N.pl3   1  UNL1       -0.3144
      9 H          63.1322   82.1398   14.7583 H       1  UNL1        0.1485
     10 C          64.2971   83.7997   15.5222 C.3     1  UNL1        0.1169
     11 C          64.0198   85.2624   15.7054 C.ar    1  UNL1        0.0166
     12 C          64.6851   86.2693   14.8147 C.ar    1  UNL1        0.0014
     13 C          64.4078   87.7320   14.9980 C.ar    1  UNL1        0.0305
     14 C          63.4651   88.1879   16.0720 C.ar    1  UNL1        0.1383
     15 CL         63.1878   89.6506   16.2552 Cl      1  UNL1       -0.0613
     16 N          62.7997   87.1809   16.9627 N.ar    1  UNL1       -0.2327
     17 C          63.0770   85.7183   16.7794 C.ar    1  UNL1        0.0972
     18 C          62.7776   85.1554    8.9569 C.3     1  UNL1        0.0603
     19 C          62.8772   90.4801   11.4925 C.3     1  UNL1        0.0307
     20 C          62.0129   89.6923   10.5532 C.2     1  UNL1        0.0074
     21 C          60.7574   90.2998   10.0013 C.2     1  UNL1        0.2278
     22 N          59.8931   89.5120    9.0620 N.2     1  UNL1       -0.0314
     23 C          60.2842   88.1167    8.6746 C.2     1  UNL1        0.3716
     24 N          59.6365   87.1057    7.7756 N.2     1  UNL1       -0.0311
     25 C          60.4917   85.8733    7.7719 C.2     1  UNL1        0.2319
     26 C          61.6679   86.1226    8.6686 C.2     1  UNL1        0.0328
     27 C          61.5397   87.5092    9.2265 C.2     1  UNL1        0.0704
     28 C          62.4041   88.2970   10.1659 C.3     1  UNL1        0.0598
@<TRIPOS>BOND
     1    19    20    1
     2    20    21    2
     3    21    22    1
     4    22    23    2
     5    23    24    1
     6    24    25    2
     7    25    26    1
     8    26    18    1
     9    18     1    1
    10     1     2   ar
    11     2     3   ar
    12     3     4   ar
    13     4     8    1
    14     8    10    1
    15    10    11    1
    16    11    12   ar
    17    12    13   ar
    18    13    14   ar
    19    14    15    1
    20    14    16   ar
    21    16    17   ar
    22     4     5   ar
    23     5     6   ar
    24     6     7    1
    25    26    27    2
    26    27    28    1
    27    28    20    1
    28    27    23    1
    29     6     1   ar
    30    17    11   ar
    31     8     9    1
@<TRIPOS>MOLECULE
*****
 28 31 0 0 0
SMALL
GASTEIGER

@<TRIPOS>ATOM
      1 C          62.6898   84.9386    9.7286 C.ar    1  UNL1        0.0284
      2 C          61.9471   85.5077   10.9009 C.ar    1  UNL1        0.0027
      3 C          60.9772   86.6340   10.6994 C.ar    1  UNL1        0.0339
      4 C          60.7499   87.1912    9.3254 C.ar    1  UNL1        0.1311
      5 N          61.4926   86.6221    8.1529 N.ar    1  UNL1       -0.2035
      6 C          62.4626   85.4958    8.3545 C.ar    1  UNL1        0.2196
      7 F          63.2052   84.9267    7.1821 F       1  UNL1       -0.1835
      8 N          59.7799   88.3175    9.1238 N.pl3   1  UNL1       -0.3144
      9 H          58.8730   88.1321    8.7885 H       1  UNL1        0.1485
     10 C          60.1917   89.7263    9.4332 C.3     1  UNL1        0.1169
     11 C          61.2545   89.9890   10.4585 C.ar    1  UNL1        0.0166
     12 C          62.5681   90.5817   10.0423 C.ar    1  UNL1        0.0014
     13 C          63.6309   90.8444   11.0676 C.ar    1  UNL1        0.0305
     14 C          63.3802   90.5145   12.5093 C.ar    1  UNL1        0.1383
     15 CL         64.4431   90.7772   13.5346 Cl      1  UNL1       -0.0613
     16 N          62.0666   89.9218   12.9255 N.ar    1  UNL1       -0.2327
     17 C          61.0038   89.6591   11.9001 C.ar    1  UNL1        0.0972
     18 C          63.6598   83.8123    9.9301 C.3     1  UNL1        0.0603
     19 C          64.5364   86.0809   15.3038 C.3     1  UNL1        0.0307
     20 C          64.1921   84.7625   14.6767 C.2     1  UNL1        0.0074
     21 C          63.9721   83.5559   15.5402 C.2     1  UNL1        0.2278
     22 N          63.6278   82.2375   14.9131 N.2     1  UNL1       -0.0314
     23 C          63.5035   82.1257   13.4225 C.2     1  UNL1        0.3716
     24 N          63.1782   80.9676   12.5264 N.2     1  UNL1       -0.0311
     25 C          63.1972   81.4584   11.1091 C.2     1  UNL1        0.2319
     26 C          63.5342   82.9199   11.1292 C.2     1  UNL1        0.0328
     27 C          63.7235   83.3323   12.5590 C.2     1  UNL1        0.0704
     28 C          64.0678   84.6507   13.1861 C.3     1  UNL1        0.0598
@<TRIPOS>BOND
     1    19    20    1
     2    20    21    2
     3    21    22    1
     4    22    23    2
     5    23    24    1
     6    24    25    2
     7    25    26    1
     8    26    18    1
     9    18     1    1
    10     1     2   ar
    11     2     3   ar
    12     3     4   ar
    13     4     8    1
    14     8    10    1
    15    10    11    1
    16    11    12   ar
    17    12    13   ar
    18    13    14   ar
    19    14    15    1
    20    14    16   ar
    21    16    17   ar
    22     4     5   ar
    23     5     6   ar
    24     6     7    1
    25    26    27    2
    26    27    28    1
    27    28    20    1
    28    27    23    1
    29     6     1   ar
    30    17    11   ar
    31     8     9    1
@<TRIPOS>MOLECULE
*****
 28 31 0 0 0
SMALL
GASTEIGER

@<TRIPOS>ATOM
      1 C          62.0749   88.2224   11.0212 C.ar    1  UNL1        0.0284
      2 C          62.9525   88.3915   12.2258 C.ar    1  UNL1        0.0027
      3 C          63.5810   89.7224   12.5151 C.ar    1  UNL1        0.0339
      4 C          63.3318   90.8843   11.5998 C.ar    1  UNL1        0.1311
      5 N          62.4541   90.7152   10.3951 N.ar    1  UNL1       -0.2035
      6 C          61.8256   89.3843   10.1058 C.ar    1  UNL1        0.2196
      7 F          60.9480   89.2154    8.9012 F       1  UNL1       -0.1835
      8 N          63.9603   92.2152   11.8891 N.pl3   1  UNL1       -0.3144
      9 H          63.4064   92.9605   12.2160 H       1  UNL1        0.1485
     10 C          65.4328   92.4105   11.6803 C.3     1  UNL1        0.1169
     11 C          66.3626   92.4189   12.8573 C.ar    1  UNL1        0.0166
     12 C          65.8327   92.7115   14.2297 C.ar    1  UNL1        0.0014
     13 C          66.7625   92.7198   15.4067 C.ar    1  UNL1        0.0305
     14 C          68.2223   92.4355   15.2113 C.ar    1  UNL1        0.1383
     15 CL         69.1521   92.4439   16.3883 Cl      1  UNL1       -0.0613
     16 N          68.7522   92.1429   13.8388 N.ar    1  UNL1       -0.2327
     17 C          67.8224   92.1346   12.6619 C.ar    1  UNL1        0.0972
     18 C          61.4464   86.8915   10.7319 C.3     1  UNL1        0.0603
     19 C          63.6532   82.9076   14.4802 C.3     1  UNL1        0.0307
     20 C          63.6548   83.1959   13.0082 C.2     1  UNL1        0.0074
     21 C          64.3957   82.2923   12.0677 C.2     1  UNL1        0.2278
     22 N          64.3972   82.5805   10.5957 N.2     1  UNL1       -0.0314
     23 C          63.6578   83.7724   10.0641 C.2     1  UNL1        0.3716
     24 N          63.4816   84.3059    8.6733 N.2     1  UNL1       -0.0311
     25 C          62.6318   85.5393    8.7542 C.2     1  UNL1        0.2319
     26 C          62.2827   85.7681   10.1949 C.2     1  UNL1        0.0328
     27 C          62.9169   84.6760   11.0045 C.2     1  UNL1        0.0704
     28 C          62.9154   84.3878   12.4765 C.3     1  UNL1        0.0598
@<TRIPOS>BOND
     1    19    20    1
     2    20    21    2
     3    21    22    1
     4    22    23    2
     5    23    24    1
     6    24    25    2
     7    25    26    1
     8    26    18    1
     9    18     1    1
    10     1     2   ar
    11     2     3   ar
    12     3     4   ar
    13     4     8    1
    14     8    10    1
    15    10    11    1
    16    11    12   ar
    17    12    13   ar
    18    13    14   ar
    19    14    15    1
    20    14    16   ar
    21    16    17   ar
    22     4     5   ar
    23     5     6   ar
    24     6     7    1
    25    26    27    2
    26    27    28    1
    27    28    20    1
    28    27    23    1
    29     6     1   ar
    30    17    11   ar
    31     8     9    1
@<TRIPOS>MOLECULE
*****
 28 31 0 0 0
SMALL
GASTEIGER

@<TRIPOS>ATOM
      1 C          63.5261   87.1588   13.0162 C.ar    1  UNL1        0.0284
      2 C          64.2133   87.3302   14.3384 C.ar    1  UNL1        0.0027
      3 C          64.4634   88.7060   14.8810 C.ar    1  UNL1        0.0339
      4 C          64.0263   89.9106   14.1014 C.ar    1  UNL1        0.1311
      5 N          63.3391   89.7393   12.7791 N.ar    1  UNL1       -0.2035
      6 C          63.0889   88.3634   12.2365 C.ar    1  UNL1        0.2196
      7 F          62.4017   88.1922   10.9142 F       1  UNL1       -0.1835
      8 N          64.2765   91.2865   14.6440 N.pl3   1  UNL1       -0.3144
      9 H          63.5424   91.7915   15.0626 H       1  UNL1        0.1485
     10 C          65.6451   91.8928   14.5488 C.3     1  UNL1        0.1169
     11 C          66.3007   92.0581   13.2098 C.ar    1  UNL1        0.0166
     12 C          65.4860   92.4785   12.0226 C.ar    1  UNL1        0.0014
     13 C          66.1416   92.6438   10.6836 C.ar    1  UNL1        0.0305
     14 C          67.6120   92.3888   10.5318 C.ar    1  UNL1        0.1383
     15 CL         68.2676   92.5541    9.1929 Cl      1  UNL1       -0.0613
     16 N          68.4267   91.9684   11.7191 N.ar    1  UNL1       -0.2327
     17 C          67.7711   91.8031   13.0580 C.ar    1  UNL1        0.0972
     18 C          63.2759   85.7830   12.4736 C.3     1  UNL1        0.0603
     19 C          62.9715   80.3009   10.3180 C.3     1  UNL1        0.0307
     20 C          62.8628   81.0028   11.6392 C.2     1  UNL1        0.0074
     21 C          62.5988   80.2146   12.8878 C.2     1  UNL1        0.2278
     22 N          62.4902   80.9165   14.2090 N.2     1  UNL1       -0.0314
     23 C          62.6454   82.4067   14.2816 C.2     1  UNL1        0.3716
     24 N          62.5895   83.3668   15.4327 N.2     1  UNL1       -0.0311
     25 C          62.8188   84.7484   14.8955 C.2     1  UNL1        0.2319
     26 C          63.0166   84.6422   13.4124 C.2     1  UNL1        0.0328
     27 C          62.9094   83.1949   13.0330 C.2     1  UNL1        0.0704
     28 C          63.0181   82.4930   11.7118 C.3     1  UNL1        0.0598
@<TRIPOS>BOND
     1    19    20    1
     2    20    21    2
     3    21    22    1
     4    22    23    2
     5    23    24    1
     6    24    25    2
     7    25    26    1
     8    26    18    1
     9    18     1    1
    10     1     2   ar
    11     2     3   ar
    12     3     4   ar
    13     4     8    1
    14     8    10    1
    15    10    11    1
    16    11    12   ar
    17    12    13   ar
    18    13    14   ar
    19    14    15    1
    20    14    16   ar
    21    16    17   ar
    22     4     5   ar
    23     5     6   ar
    24     6     7    1
    25    26    27    2
    26    27    28    1
    27    28    20    1
    28    27    23    1
    29     6     1   ar
    30    17    11   ar
    31     8     9    1
@<TRIPOS>MOLECULE
*****
 28 31 0 0 0
SMALL
GASTEIGER

@<TRIPOS>ATOM
      1 C          61.4812   88.4208   10.3706 C.ar    1  UNL1        0.0284
      2 C          62.7818   89.0938   10.0460 C.ar    1  UNL1        0.0027
      3 C          63.3533   90.1140   10.9855 C.ar    1  UNL1        0.0339
      4 C          62.6243   90.4611   12.2496 C.ar    1  UNL1        0.1311
      5 N          61.3236   89.7880   12.5742 N.ar    1  UNL1       -0.2035
      6 C          60.7520   88.7678   11.6347 C.ar    1  UNL1        0.2196
      7 F          59.4514   88.0948   11.9594 F       1  UNL1       -0.1835
      8 N          63.1959   91.4812   13.1891 N.pl3   1  UNL1       -0.3144
      9 H          62.9683   92.4328   13.0802 H       1  UNL1        0.1485
     10 C          64.1142   91.0514   14.2945 C.3     1  UNL1        0.1169
     11 C          63.9129   89.7239   14.9633 C.ar    1  UNL1        0.0166
     12 C          64.4643   88.4774   14.3374 C.ar    1  UNL1        0.0014
     13 C          64.2629   87.1499   15.0062 C.ar    1  UNL1        0.0305
     14 C          63.5101   87.0690   16.3011 C.ar    1  UNL1        0.1383
     15 CL         63.3088   85.7416   16.9699 Cl      1  UNL1       -0.0613
     16 N          62.9587   88.3157   16.9271 N.ar    1  UNL1       -0.2327
     17 C          63.1600   89.6431   16.2582 C.ar    1  UNL1        0.0972
     18 C          60.9096   87.4007    9.4311 C.3     1  UNL1        0.0603
     19 C          63.4391   84.1035   13.6170 C.3     1  UNL1        0.0307
     20 C          63.3356   84.1458   12.1212 C.2     1  UNL1        0.0074
     21 C          64.0279   83.1053   11.2917 C.2     1  UNL1        0.2278
     22 N          63.9244   83.1475    9.7959 N.2     1  UNL1       -0.0314
     23 C          63.1285   84.2304    9.1295 C.2     1  UNL1        0.3716
     24 N          62.8486   84.5267    7.6860 N.2     1  UNL1       -0.0311
     25 C          61.9833   85.7503    7.6232 C.2     1  UNL1        0.2319
     26 C          61.7284   86.2103    9.0280 C.2     1  UNL1        0.0328
     27 C          62.4363   85.2709    9.9589 C.2     1  UNL1        0.0704
     28 C          62.5398   85.2286   11.4548 C.3     1  UNL1        0.0598
@<TRIPOS>BOND
     1    19    20    1
     2    20    21    2
     3    21    22    1
     4    22    23    2
     5    23    24    1
     6    24    25    2
     7    25    26    1
     8    26    18    1
     9    18     1    1
    10     1     2   ar
    11     2     3   ar
    12     3     4   ar
    13     4     8    1
    14     8    10    1
    15    10    11    1
    16    11    12   ar
    17    12    13   ar
    18    13    14   ar
    19    14    15    1
    20    14    16   ar
    21    16    17   ar
    22     4     5   ar
    23     5     6   ar
    24     6     7    1
    25    26    27    2
    26    27    28    1
    27    28    20    1
    28    27    23    1
    29     6     1   ar
    30    17    11   ar
    31     8     9    1
@<TRIPOS>MOLECULE
*****
 28 31 0 0 0
SMALL
GASTEIGER

@<TRIPOS>ATOM
      1 C          63.0442   86.8180   12.2512 C.ar    1  UNL1        0.0284
      2 C          63.8200   87.2212   13.4700 C.ar    1  UNL1        0.0027
      3 C          63.9716   88.6728   13.8164 C.ar    1  UNL1        0.0339
      4 C          63.3474   89.7212   12.9440 C.ar    1  UNL1        0.1311
      5 N          62.5715   89.3180   11.7251 N.ar    1  UNL1       -0.2035
      6 C          62.4199   87.8664   11.3787 C.ar    1  UNL1        0.2196
      7 F          61.6441   87.4633   10.1599 F       1  UNL1       -0.1835
      8 N          63.4990   91.1728   13.2904 N.pl3   1  UNL1       -0.3144
      9 H          62.8240   91.6179   13.8521 H       1  UNL1        0.1485
     10 C          64.6790   91.9461   12.7811 C.3     1  UNL1        0.1169
     11 C          65.8789   92.1477   13.6584 C.ar    1  UNL1        0.0166
     12 C          65.7038   92.3433   15.1352 C.ar    1  UNL1        0.0014
     13 C          66.9037   92.5450   16.0125 C.ar    1  UNL1        0.0305
     14 C          68.2786   92.5511   15.4130 C.ar    1  UNL1        0.1383
     15 CL         69.4785   92.7528   16.2903 Cl      1  UNL1       -0.0613
     16 N          68.4537   92.3555   13.9361 N.ar    1  UNL1       -0.2327
     17 C          67.2538   92.1538   13.0589 C.ar    1  UNL1        0.0972
     18 C          62.8926   85.3665   11.9048 C.3     1  UNL1        0.0603
     19 C          62.8920   79.6359   10.5075 C.3     1  UNL1        0.0307
     20 C          62.7663   80.5015   11.7261 C.2     1  UNL1        0.0074
     21 C          62.5786   79.8740   13.0755 C.2     1  UNL1        0.2278
     22 N          62.4529   80.7395   14.2942 N.2     1  UNL1       -0.0314
     23 C          62.5148   82.2325   14.1634 C.2     1  UNL1        0.3716
     24 N          62.4218   83.3337   15.1776 N.2     1  UNL1       -0.0311
     25 C          62.5520   84.6417   14.4551 C.2     1  UNL1        0.2319
     26 C          62.7255   84.3490   12.9942 C.2     1  UNL1        0.0328
     27 C          62.7025   82.8599   12.8139 C.2     1  UNL1        0.0704
     28 C          62.8282   81.9944   11.5953 C.3     1  UNL1        0.0598
@<TRIPOS>BOND
     1    19    20    1
     2    20    21    2
     3    21    22    1
     4    22    23    2
     5    23    24    1
     6    24    25    2
     7    25    26    1
     8    26    18    1
     9    18     1    1
    10     1     2   ar
    11     2     3   ar
    12     3     4   ar
    13     4     8    1
    14     8    10    1
    15    10    11    1
    16    11    12   ar
    17    12    13   ar
    18    13    14   ar
    19    14    15    1
    20    14    16   ar
    21    16    17   ar
    22     4     5   ar
    23     5     6   ar
    24     6     7    1
    25    26    27    2
    26    27    28    1
    27    28    20    1
    28    27    23    1
    29     6     1   ar
    30    17    11   ar
    31     8     9    1
@<TRIPOS>MOLECULE
*****
 28 31 0 0 0
SMALL
GASTEIGER

@<TRIPOS>ATOM
      1 C          62.0049   86.3872   10.4634 C.ar    1  UNL1        0.0284
      2 C          62.6587   86.9367   11.6965 C.ar    1  UNL1        0.0027
      3 C          62.7871   88.4199   11.8799 C.ar    1  UNL1        0.0339
      4 C          62.2617   89.3537   10.8302 C.ar    1  UNL1        0.1311
      5 N          61.6079   88.8042    9.5970 N.ar    1  UNL1       -0.2035
      6 C          61.4795   87.3210    9.4136 C.ar    1  UNL1        0.2196
      7 F          60.8257   86.7716    8.1804 F       1  UNL1       -0.1835
      8 N          62.3900   90.8369   11.0136 N.pl3   1  UNL1       -0.3144
      9 H          61.6505   91.3493   11.4134 H       1  UNL1        0.1485
     10 C          63.6451   91.5394   10.5879 C.3     1  UNL1        0.1169
     11 C          64.7207   91.8281   11.5928 C.ar    1  UNL1        0.0166
     12 C          64.5769   91.3442   13.0053 C.ar    1  UNL1        0.0014
     13 C          65.6524   91.6329   14.0102 C.ar    1  UNL1        0.0305
     14 C          66.8719   92.4055   13.6026 C.ar    1  UNL1        0.1383
     15 CL         67.9474   92.6942   14.6074 Cl      1  UNL1       -0.0613
     16 N          67.0157   92.8893   12.1900 N.ar    1  UNL1       -0.2327
     17 C          65.9401   92.6006   11.1852 C.ar    1  UNL1        0.0972
     18 C          61.8766   84.9040   10.2800 C.3     1  UNL1        0.0603
     19 C          60.5809   80.7594   14.2718 C.3     1  UNL1        0.0307
     20 C          61.7690   81.2523   13.5002 C.2     1  UNL1        0.0074
     21 C          63.1069   80.6001   13.6857 C.2     1  UNL1        0.2278
     22 N          64.2950   81.0931   12.9141 N.2     1  UNL1       -0.0314
     23 C          64.1452   82.2382   11.9569 C.2     1  UNL1        0.3716
     24 N          65.1287   82.9362   11.0650 N.2     1  UNL1       -0.0311
     25 C          64.3986   84.0198   10.3283 C.2     1  UNL1        0.2319
     26 C          62.9638   83.9915   10.7648 C.2     1  UNL1        0.0328
     27 C          62.8072   82.8904   11.7714 C.2     1  UNL1        0.0704
     28 C          61.6191   82.3975   12.5430 C.3     1  UNL1        0.0598
@<TRIPOS>BOND
     1    19    20    1
     2    20    21    2
     3    21    22    1
     4    22    23    2
     5    23    24    1
     6    24    25    2
     7    25    26    1
     8    26    18    1
     9    18     1    1
    10     1     2   ar
    11     2     3   ar
    12     3     4   ar
    13     4     8    1
    14     8    10    1
    15    10    11    1
    16    11    12   ar
    17    12    13   ar
    18    13    14   ar
    19    14    15    1
    20    14    16   ar
    21    16    17   ar
    22     4     5   ar
    23     5     6   ar
    24     6     7    1
    25    26    27    2
    26    27    28    1
    27    28    20    1
    28    27    23    1
    29     6     1   ar
    30    17    11   ar
    31     8     9    1
