@<TRIPOS>MOLECULE
*****
 28 30 0 0 0
SMALL
GASTEIGER

@<TRIPOS>ATOM
      1 C          63.5182   90.8451   11.7861 C.ar    1  UNL1        0.0191
      2 C          62.9487   90.7706   10.4004 C.ar    1  UNL1        0.0063
      3 C          62.3589   89.4853    9.9001 C.ar    1  UNL1        0.0581
      4 C          62.3386   88.2747   10.7854 C.ar    1  UNL1        0.2297
      5 N          62.9081   88.3493   12.1711 N.ar    1  UNL1       -0.2098
      6 C          63.4979   89.6345   12.6714 C.ar    1  UNL1        0.1020
      7 C          65.5536   92.4407   12.0338 C.2     1  UNL1       -0.0069
      8 C          64.1080   92.1304   12.2864 C.2     1  UNL1       -0.0014
      9 C          66.1434   93.7259   12.5341 C.3     1  UNL1        0.0939
     10 C          66.3295   94.8812   11.5956 C.3     1  UNL1        0.0262
     11 C          68.1055   93.1888   15.9416 C.3     1  UNL1        0.0946
     12 C          67.7019   93.0588   14.5029 C.2     1  UNL1        0.2232
     13 O          68.4532   92.1317   13.5940 O.2     1  UNL1       -0.2751
     14 N          66.5470   93.8559   13.9729 N.am    1  UNL1       -0.3022
     15 H          66.0539   94.4644   14.5694 H       1  UNL1        0.1497
     16 O          61.7488   86.9894   10.2851 O.3     1  UNL1       -0.4352
     17 C          62.3685   85.6793   10.6716 C.ar    1  UNL1        0.1578
     18 C          62.3102   85.2133   12.0963 C.ar    1  UNL1        0.0415
     19 C          62.9299   83.9032   12.4828 C.ar    1  UNL1        0.0401
     20 C          63.6078   83.0589   11.4447 C.ar    1  UNL1        0.1396
     21 C          63.6662   83.5248   10.0202 C.ar    1  UNL1        0.0514
     22 C          63.0465   84.8350    9.6336 C.ar    1  UNL1        0.0952
     23 CL         63.1048   85.3010    8.2090 Cl      1  UNL1       -0.0790
     24 O          64.2275   81.7487   11.8313 O.3     1  UNL1       -0.4754
     25 C          63.9802   81.1755   13.1952 C.3     1  UNL1        0.2053
     26 C          62.5937   80.7684   13.5975 C.3     1  UNL1        0.0438
     27 C          61.2474   81.1206   14.1571 C.3     1  UNL1        0.0038
     28 C          61.5386   79.7111   13.7346 C.3     1  UNL1        0.0038
@<TRIPOS>BOND
     1    11    12    1
     2    12    13    2
     3    12    14   am
     4    14     9    1
     5     9    10    1
     6     9     7    1
     7     7     8    2
     8     8     1    1
     9     1     2   ar
    10     2     3   ar
    11     3     4   ar
    12     4    16    1
    13    16    17    1
    14    17    18   ar
    15    18    19   ar
    16    19    20   ar
    17    20    24    1
    18    24    25    1
    19    25    26    1
    20    26    27    1
    21    27    28    1
    22    20    21   ar
    23    21    22   ar
    24    22    23    1
    25     4     5   ar
    26     5     6   ar
    27     6     1   ar
    28    22    17   ar
    29    28    26    1
    30    14    15    1
@<TRIPOS>MOLECULE
*****
 28 30 0 0 0
SMALL
GASTEIGER

@<TRIPOS>ATOM
      1 C          63.2623   86.5677   12.7292 C.ar    1  UNL1        0.0191
      2 C          64.0569   86.5857   14.0013 C.ar    1  UNL1        0.0063
      3 C          64.4418   87.8936   14.6267 C.ar    1  UNL1        0.0581
      4 C          64.0320   89.1836   13.9801 C.ar    1  UNL1        0.2297
      5 N          63.2374   89.1655   12.7080 N.ar    1  UNL1       -0.2098
      6 C          62.8526   87.8576   12.0826 C.ar    1  UNL1        0.1020
      7 C          63.7720   84.0650   12.2531 C.2     1  UNL1       -0.0069
      8 C          62.8775   85.2597   12.1037 C.2     1  UNL1       -0.0014
      9 C          63.3872   82.7570   11.6277 C.3     1  UNL1        0.0939
     10 C          64.1843   82.2111   10.4802 C.3     1  UNL1        0.0262
     11 C          61.0197   80.7304   14.0848 C.3     1  UNL1        0.0946
     12 C          62.2016   81.4924   13.5629 C.2     1  UNL1        0.2232
     13 O          63.3798   81.7517   14.4542 O.2     1  UNL1       -0.2751
     14 N          62.2053   81.9951   12.1496 N.am    1  UNL1       -0.3022
     15 H          61.4319   81.8248   11.5646 H       1  UNL1        0.1497
     16 O          64.4169   90.4915   14.6056 O.3     1  UNL1       -0.4352
     17 C          65.0140   91.5790   13.7626 C.ar    1  UNL1        0.1578
     18 C          64.6050   91.7252   12.3268 C.ar    1  UNL1        0.0415
     19 C          65.2021   92.8127   11.4839 C.ar    1  UNL1        0.0401
     20 C          66.2083   93.7541   12.0766 C.ar    1  UNL1        0.1396
     21 C          66.6174   93.6080   13.5123 C.ar    1  UNL1        0.0514
     22 C          66.0202   92.5204   14.3554 C.ar    1  UNL1        0.0952
     23 CL         66.4292   92.3743   15.7911 Cl      1  UNL1       -0.0790
     24 O          66.8055   94.8417   11.2336 O.3     1  UNL1       -0.4754
     25 C          67.2190   94.5540    9.8207 C.3     1  UNL1        0.2053
     26 C          67.9312   93.2751    9.4935 C.3     1  UNL1        0.0438
     27 C          68.7432   92.4471    8.5421 C.3     1  UNL1        0.0038
     28 C          68.3530   91.8879    9.8781 C.3     1  UNL1        0.0038
@<TRIPOS>BOND
     1    11    12    1
     2    12    13    2
     3    12    14   am
     4    14     9    1
     5     9    10    1
     6     9     7    1
     7     7     8    2
     8     8     1    1
     9     1     2   ar
    10     2     3   ar
    11     3     4   ar
    12     4    16    1
    13    16    17    1
    14    17    18   ar
    15    18    19   ar
    16    19    20   ar
    17    20    24    1
    18    24    25    1
    19    25    26    1
    20    26    27    1
    21    27    28    1
    22    20    21   ar
    23    21    22   ar
    24    22    23    1
    25     4     5   ar
    26     5     6   ar
    27     6     1   ar
    28    22    17   ar
    29    28    26    1
    30    14    15    1
@<TRIPOS>MOLECULE
*****
 28 30 0 0 0
SMALL
GASTEIGER

@<TRIPOS>ATOM
      1 C          63.7504   91.0113   11.6049 C.ar    1  UNL1        0.0191
      2 C          63.1055   90.7839   10.2699 C.ar    1  UNL1        0.0063
      3 C          62.3855   89.4972    9.9941 C.ar    1  UNL1        0.0581
      4 C          62.3104   88.4379   11.0534 C.ar    1  UNL1        0.2297
      5 N          62.9553   88.6652   12.3884 N.ar    1  UNL1       -0.2098
      6 C          63.6753   89.9519   12.6642 C.ar    1  UNL1        0.1020
      7 C          65.1194   93.0500   10.7567 C.2     1  UNL1       -0.0069
      8 C          64.4704   92.2979   11.8806 C.2     1  UNL1       -0.0014
      9 C          65.8394   94.3367   11.0325 C.3     1  UNL1        0.0939
     10 C          66.3722   94.6185   12.4061 C.3     1  UNL1        0.0262
     11 C          67.5046   96.3917    8.0738 C.3     1  UNL1        0.0946
     12 C          67.3173   95.3869    9.1716 C.2     1  UNL1        0.2232
     13 O          68.4207   94.4275    9.5064 O.2     1  UNL1       -0.2751
     14 N          66.0267   95.3415    9.9346 N.am    1  UNL1       -0.3022
     15 H          65.3025   95.9712    9.7149 H       1  UNL1        0.1497
     16 O          61.5904   87.1512   10.7777 O.3     1  UNL1       -0.4352
     17 C          62.2666   85.8402   11.0494 C.ar    1  UNL1        0.1578
     18 C          62.3576   85.3200   12.4534 C.ar    1  UNL1        0.0415
     19 C          63.0338   84.0090   12.7251 C.ar    1  UNL1        0.0401
     20 C          63.6192   83.2181   11.5929 C.ar    1  UNL1        0.1396
     21 C          63.5283   83.7383   10.1890 C.ar    1  UNL1        0.0514
     22 C          62.8520   85.0494    9.9172 C.ar    1  UNL1        0.0952
     23 CL         62.7611   85.5695    8.5132 Cl      1  UNL1       -0.0790
     24 O          64.2955   81.9071   11.8647 O.3     1  UNL1       -0.4754
     25 C          64.0657   81.2005   13.1677 C.3     1  UNL1        0.2053
     26 C          62.6776   80.7951   13.5664 C.3     1  UNL1        0.0438
     27 C          61.6053   79.7503   13.6580 C.3     1  UNL1        0.0038
     28 C          61.3458   81.1378   14.1654 C.3     1  UNL1        0.0038
@<TRIPOS>BOND
     1    11    12    1
     2    12    13    2
     3    12    14   am
     4    14     9    1
     5     9    10    1
     6     9     7    1
     7     7     8    2
     8     8     1    1
     9     1     2   ar
    10     2     3   ar
    11     3     4   ar
    12     4    16    1
    13    16    17    1
    14    17    18   ar
    15    18    19   ar
    16    19    20   ar
    17    20    24    1
    18    24    25    1
    19    25    26    1
    20    26    27    1
    21    27    28    1
    22    20    21   ar
    23    21    22   ar
    24    22    23    1
    25     4     5   ar
    26     5     6   ar
    27     6     1   ar
    28    22    17   ar
    29    28    26    1
    30    14    15    1
@<TRIPOS>MOLECULE
*****
 28 30 0 0 0
SMALL
GASTEIGER

@<TRIPOS>ATOM
      1 C          64.6322   91.4414   12.7141 C.ar    1  UNL1        0.0191
      2 C          65.5470   91.2391   13.8854 C.ar    1  UNL1        0.0063
      3 C          65.1789   90.2652   14.9652 C.ar    1  UNL1        0.0581
      4 C          63.8958   89.4936   14.8737 C.ar    1  UNL1        0.2297
      5 N          62.9810   89.6959   13.7024 N.ar    1  UNL1       -0.2098
      6 C          63.3491   90.6698   12.6226 C.ar    1  UNL1        0.1020
      7 C          66.0139   93.4874   11.9050 C.2     1  UNL1       -0.0069
      8 C          65.0003   92.4153   11.6343 C.2     1  UNL1       -0.0014
      9 C          66.3820   94.4613   10.8252 C.3     1  UNL1        0.0939
     10 C          66.0652   95.9183   10.9894 C.3     1  UNL1        0.0262
     11 C          68.7755   92.4020    8.4209 C.3     1  UNL1        0.0946
     12 C          68.0906   92.8850    9.6649 C.2     1  UNL1        0.2232
     13 O          68.4293   92.2748   10.9926 O.2     1  UNL1       -0.2751
     14 N          67.0669   93.9783    9.5812 N.am    1  UNL1       -0.3022
     15 H          66.8446   94.3788    8.7098 H       1  UNL1        0.1497
     16 O          63.5277   88.5197   15.9535 O.3     1  UNL1       -0.4352
     17 C          63.6378   87.0449   15.7028 C.ar    1  UNL1        0.1578
     18 C          64.2913   86.5440   14.4490 C.ar    1  UNL1        0.0415
     19 C          64.4015   85.0693   14.1982 C.ar    1  UNL1        0.0401
     20 C          63.8581   84.0953   15.2013 C.ar    1  UNL1        0.1396
     21 C          63.2045   84.5962   16.4551 C.ar    1  UNL1        0.0514
     22 C          63.0944   86.0710   16.7059 C.ar    1  UNL1        0.0952
     23 CL         62.4409   86.5718   17.9597 Cl      1  UNL1       -0.0790
     24 O          63.9682   82.6205   14.9505 O.3     1  UNL1       -0.4754
     25 C          63.0780   81.9634   13.9378 C.3     1  UNL1        0.2053
     26 C          63.4240   82.0297   12.4798 C.3     1  UNL1        0.0438
     27 C          63.1957   81.5756   11.0686 C.3     1  UNL1        0.0038
     28 C          64.2517   82.5986   11.3657 C.3     1  UNL1        0.0038
@<TRIPOS>BOND
     1    11    12    1
     2    12    13    2
     3    12    14   am
     4    14     9    1
     5     9    10    1
     6     9     7    1
     7     7     8    2
     8     8     1    1
     9     1     2   ar
    10     2     3   ar
    11     3     4   ar
    12     4    16    1
    13    16    17    1
    14    17    18   ar
    15    18    19   ar
    16    19    20   ar
    17    20    24    1
    18    24    25    1
    19    25    26    1
    20    26    27    1
    21    27    28    1
    22    20    21   ar
    23    21    22   ar
    24    22    23    1
    25     4     5   ar
    26     5     6   ar
    27     6     1   ar
    28    22    17   ar
    29    28    26    1
    30    14    15    1
@<TRIPOS>MOLECULE
*****
 28 30 0 0 0
SMALL
GASTEIGER

@<TRIPOS>ATOM
      1 C          64.8296   91.7167   12.6083 C.ar    1  UNL1        0.0191
      2 C          63.5471   90.9497   12.4787 C.ar    1  UNL1        0.0063
      3 C          63.1180   90.0160   13.5714 C.ar    1  UNL1        0.0581
      4 C          63.9713   89.8493   14.7937 C.ar    1  UNL1        0.2297
      5 N          65.2538   90.6164   14.9233 N.ar    1  UNL1       -0.2098
      6 C          65.6829   91.5501   13.8306 C.ar    1  UNL1        0.1020
      7 C          66.6451   92.5569   10.9506 C.2     1  UNL1       -0.0069
      8 C          65.2588   92.6504   11.5156 C.2     1  UNL1       -0.0014
      9 C          67.0743   93.4906    9.8579 C.3     1  UNL1        0.0939
     10 C          68.4801   93.4400    9.3372 C.3     1  UNL1        0.0262
     11 C          65.0544   96.8542    9.2614 C.3     1  UNL1        0.0946
     12 C          66.0310   95.8699    9.8334 C.2     1  UNL1        0.2232
     13 O          66.9410   96.2805   10.9529 O.2     1  UNL1       -0.2751
     14 N          66.0976   94.4750    9.2859 N.am    1  UNL1       -0.3022
     15 H          65.5004   94.2055    8.5511 H       1  UNL1        0.1497
     16 O          63.5422   88.9156   15.8864 O.3     1  UNL1       -0.4352
     17 C          63.6864   87.4335   15.7062 C.ar    1  UNL1        0.1578
     18 C          64.3153   86.8874   14.4587 C.ar    1  UNL1        0.0415
     19 C          64.4596   85.4053   14.2785 C.ar    1  UNL1        0.0401
     20 C          63.9749   84.4693   15.3457 C.ar    1  UNL1        0.1396
     21 C          63.3459   85.0153   16.5931 C.ar    1  UNL1        0.0514
     22 C          63.2017   86.4975   16.7734 C.ar    1  UNL1        0.0952
     23 CL         62.5727   87.0436   18.0209 Cl      1  UNL1       -0.0790
     24 O          64.1191   82.9871   15.1654 O.3     1  UNL1       -0.4754
     25 C          63.2631   82.2662   14.1667 C.3     1  UNL1        0.2053
     26 C          63.5414   82.4079   12.6996 C.3     1  UNL1        0.0438
     27 C          63.0860   82.2989   11.2745 C.3     1  UNL1        0.0038
     28 C          64.4788   82.7623   11.5835 C.3     1  UNL1        0.0038
@<TRIPOS>BOND
     1    11    12    1
     2    12    13    2
     3    12    14   am
     4    14     9    1
     5     9    10    1
     6     9     7    1
     7     7     8    2
     8     8     1    1
     9     1     2   ar
    10     2     3   ar
    11     3     4   ar
    12     4    16    1
    13    16    17    1
    14    17    18   ar
    15    18    19   ar
    16    19    20   ar
    17    20    24    1
    18    24    25    1
    19    25    26    1
    20    26    27    1
    21    27    28    1
    22    20    21   ar
    23    21    22   ar
    24    22    23    1
    25     4     5   ar
    26     5     6   ar
    27     6     1   ar
    28    22    17   ar
    29    28    26    1
    30    14    15    1
@<TRIPOS>MOLECULE
*****
 28 30 0 0 0
SMALL
GASTEIGER

@<TRIPOS>ATOM
      1 C          63.6278   86.3399   15.6805 C.ar    1  UNL1        0.0191
      2 C          64.3329   87.0679   14.5747 C.ar    1  UNL1        0.0063
      3 C          64.4062   88.5661   14.5904 C.ar    1  UNL1        0.0581
      4 C          63.7744   89.3362   15.7118 C.ar    1  UNL1        0.2297
      5 N          63.0693   88.6082   16.8176 N.ar    1  UNL1       -0.2098
      6 C          62.9960   87.1100   16.8019 C.ar    1  UNL1        0.1020
      7 C          63.5808   84.1032   14.3595 C.2     1  UNL1       -0.0069
      8 C          63.5545   84.8418   15.6648 C.2     1  UNL1       -0.0014
      9 C          63.5075   82.6051   14.3438 C.3     1  UNL1        0.0939
     10 C          64.6931   81.8008   13.8993 C.3     1  UNL1        0.0262
     11 C          60.1709   80.4615   14.1975 C.3     1  UNL1        0.0946
     12 C          61.4297   81.1553   13.7687 C.2     1  UNL1        0.2232
     13 O          61.8695   81.0932   12.3361 O.2     1  UNL1       -0.2751
     14 N          62.2487   81.9113   14.7726 N.am    1  UNL1       -0.3022
     15 H          61.9599   81.9521   15.7129 H       1  UNL1        0.1497
     16 O          63.8477   90.8343   15.7275 O.3     1  UNL1       -0.4352
     17 C          64.6257   91.5583   14.6689 C.ar    1  UNL1        0.1578
     18 C          64.2346   91.4242   13.2270 C.ar    1  UNL1        0.0415
     19 C          65.0125   92.1481   12.1684 C.ar    1  UNL1        0.0401
     20 C          66.1816   93.0062   12.5517 C.ar    1  UNL1        0.1396
     21 C          66.5728   93.1403   13.9936 C.ar    1  UNL1        0.0514
     22 C          65.7948   92.4163   15.0522 C.ar    1  UNL1        0.0952
     23 CL         66.1859   92.5505   16.4941 Cl      1  UNL1       -0.0790
     24 O          66.9596   93.7302   11.4931 O.3     1  UNL1       -0.4754
     25 C          66.4621   95.0417   10.9617 C.3     1  UNL1        0.2053
     26 C          66.9464   95.5453    9.6344 C.3     1  UNL1        0.0438
     27 C          67.4382   96.6702    8.7726 C.3     1  UNL1        0.0038
     28 C          67.2934   95.2926    8.1971 C.3     1  UNL1        0.0038
@<TRIPOS>BOND
     1    11    12    1
     2    12    13    2
     3    12    14   am
     4    14     9    1
     5     9    10    1
     6     9     7    1
     7     7     8    2
     8     8     1    1
     9     1     2   ar
    10     2     3   ar
    11     3     4   ar
    12     4    16    1
    13    16    17    1
    14    17    18   ar
    15    18    19   ar
    16    19    20   ar
    17    20    24    1
    18    24    25    1
    19    25    26    1
    20    26    27    1
    21    27    28    1
    22    20    21   ar
    23    21    22   ar
    24    22    23    1
    25     4     5   ar
    26     5     6   ar
    27     6     1   ar
    28    22    17   ar
    29    28    26    1
    30    14    15    1
@<TRIPOS>MOLECULE
*****
 28 30 0 0 0
SMALL
GASTEIGER

@<TRIPOS>ATOM
      1 C          61.3105   86.9085    9.3972 C.ar    1  UNL1        0.0191
      2 C          60.5455   86.1678    8.3407 C.ar    1  UNL1        0.0063
      3 C          59.5455   86.8941    7.4908 C.ar    1  UNL1        0.0581
      4 C          59.3105   88.3611    7.6972 C.ar    1  UNL1        0.2297
      5 N          60.0755   89.1018    8.7536 N.ar    1  UNL1       -0.2098
      6 C          61.0755   88.3755    9.6036 C.ar    1  UNL1        0.1020
      7 C          61.8463   85.3492   11.4050 C.2     1  UNL1       -0.0069
      8 C          62.3105   86.1822   10.2472 C.2     1  UNL1       -0.0014
      9 C          62.8464   84.6229   12.2550 C.3     1  UNL1        0.0939
     10 C          63.6335   85.3698   13.2906 C.3     1  UNL1        0.0262
     11 C          62.8231   80.7145   12.9434 C.3     1  UNL1        0.0946
     12 C          62.6103   82.1877   13.1290 C.2     1  UNL1        0.2232
     13 O          61.9486   82.6987   14.3743 O.2     1  UNL1       -0.2751
     14 N          63.0592   83.1497   12.0693 N.am    1  UNL1       -0.3022
     15 H          63.4935   82.8143   11.2520 H       1  UNL1        0.1497
     16 O          58.3104   89.0874    6.8472 O.3     1  UNL1       -0.4352
     17 C          58.7666   90.1613    5.9047 C.ar    1  UNL1        0.1578
     18 C          60.2322   90.3957    5.6874 C.ar    1  UNL1        0.0415
     19 C          60.6884   91.4697    4.7449 C.ar    1  UNL1        0.0401
     20 C          59.6790   92.3094    4.0196 C.ar    1  UNL1        0.1396
     21 C          58.2135   92.0751    4.2368 C.ar    1  UNL1        0.0514
     22 C          57.7572   91.0011    5.1794 C.ar    1  UNL1        0.0952
     23 CL         56.2917   90.7668    5.3967 Cl      1  UNL1       -0.0790
     24 O          60.1353   93.3834    3.0770 O.3     1  UNL1       -0.4754
     25 C          60.9278   93.0224    1.8557 C.3     1  UNL1        0.2053
     26 C          62.3899   92.7101    1.9758 C.3     1  UNL1        0.0438
     27 C          63.8126   92.9814    1.5854 C.3     1  UNL1        0.0038
     28 C          63.4999   91.8978    2.5743 C.3     1  UNL1        0.0038
@<TRIPOS>BOND
     1    11    12    1
     2    12    13    2
     3    12    14   am
     4    14     9    1
     5     9    10    1
     6     9     7    1
     7     7     8    2
     8     8     1    1
     9     1     2   ar
    10     2     3   ar
    11     3     4   ar
    12     4    16    1
    13    16    17    1
    14    17    18   ar
    15    18    19   ar
    16    19    20   ar
    17    20    24    1
    18    24    25    1
    19    25    26    1
    20    26    27    1
    21    27    28    1
    22    20    21   ar
    23    21    22   ar
    24    22    23    1
    25     4     5   ar
    26     5     6   ar
    27     6     1   ar
    28    22    17   ar
    29    28    26    1
    30    14    15    1
@<TRIPOS>MOLECULE
*****
 28 30 0 0 0
SMALL
GASTEIGER

@<TRIPOS>ATOM
      1 C          62.3325   85.9836   11.1183 C.ar    1  UNL1        0.0191
      2 C          61.4827   86.8699   10.2568 C.ar    1  UNL1        0.0063
      3 C          61.4072   88.3411   10.5390 C.ar    1  UNL1        0.0581
      4 C          62.1815   88.9261   11.6827 C.ar    1  UNL1        0.2297
      5 N          63.0313   88.0399   12.5442 N.ar    1  UNL1       -0.2098
      6 C          63.1068   86.5686   12.2620 C.ar    1  UNL1        0.1020
      7 C          62.9745   83.5794   11.8649 C.2     1  UNL1       -0.0069
      8 C          62.4080   84.5123   10.8361 C.2     1  UNL1       -0.0014
      9 C          63.0501   82.1081   11.5827 C.3     1  UNL1        0.0939
     10 C          64.1411   81.5675   10.7066 C.3     1  UNL1        0.0262
     11 C          60.9124   80.1047   14.2598 C.3     1  UNL1        0.0946
     12 C          61.9279   81.0354   13.6660 C.2     1  UNL1        0.2232
     13 O          62.8366   81.8240   14.5616 O.2     1  UNL1       -0.2751
     14 N          62.0346   81.1775   12.1765 N.am    1  UNL1       -0.3022
     15 H          61.4381   80.6599   11.5887 H       1  UNL1        0.1497
     16 O          62.1060   90.3974   11.9649 O.3     1  UNL1       -0.4352
     17 C          63.3348   91.2487   11.8419 C.ar    1  UNL1        0.1578
     18 C          63.7097   91.8372   10.5140 C.ar    1  UNL1        0.0415
     19 C          64.9386   92.6885   10.3910 C.ar    1  UNL1        0.0401
     20 C          65.7926   92.9514   11.5958 C.ar    1  UNL1        0.1396
     21 C          65.4177   92.3630   12.9237 C.ar    1  UNL1        0.0514
     22 C          64.1888   91.5116   13.0467 C.ar    1  UNL1        0.0952
     23 CL         63.8140   90.9232   14.3746 Cl      1  UNL1       -0.0790
     24 O          67.0215   93.8027   11.4727 O.3     1  UNL1       -0.4754
     25 C          66.9123   95.2072   10.9576 C.3     1  UNL1        0.2053
     26 C          67.1567   95.4947    9.5059 C.3     1  UNL1        0.0438
     27 C          67.3087   95.0123    8.0937 C.3     1  UNL1        0.0038
     28 C          67.4280   96.4751    8.4035 C.3     1  UNL1        0.0038
@<TRIPOS>BOND
     1    11    12    1
     2    12    13    2
     3    12    14   am
     4    14     9    1
     5     9    10    1
     6     9     7    1
     7     7     8    2
     8     8     1    1
     9     1     2   ar
    10     2     3   ar
    11     3     4   ar
    12     4    16    1
    13    16    17    1
    14    17    18   ar
    15    18    19   ar
    16    19    20   ar
    17    20    24    1
    18    24    25    1
    19    25    26    1
    20    26    27    1
    21    27    28    1
    22    20    21   ar
    23    21    22   ar
    24    22    23    1
    25     4     5   ar
    26     5     6   ar
    27     6     1   ar
    28    22    17   ar
    29    28    26    1
    30    14    15    1
@<TRIPOS>MOLECULE
*****
 28 30 0 0 0
SMALL
GASTEIGER

@<TRIPOS>ATOM
      1 C          62.3136   86.0134   10.6691 C.ar    1  UNL1        0.0191
      2 C          61.8840   86.8933    9.5328 C.ar    1  UNL1        0.0063
      3 C          61.8739   88.3839    9.7007 C.ar    1  UNL1        0.0581
      4 C          62.2934   88.9945   11.0050 C.ar    1  UNL1        0.2297
      5 N          62.7230   88.1146   12.1412 N.ar    1  UNL1       -0.2098
      6 C          62.7331   86.6241   11.9733 C.ar    1  UNL1        0.1020
      7 C          62.9679   83.6553   11.5413 C.2     1  UNL1       -0.0069
      8 C          62.3236   84.5229   10.5011 C.2     1  UNL1       -0.0014
      9 C          62.9779   82.1647   11.3734 C.3     1  UNL1        0.0939
     10 C          63.9799   81.5194   10.4625 C.3     1  UNL1        0.0262
     11 C          61.1085   80.3164   14.3464 C.3     1  UNL1        0.0946
     12 C          62.1004   81.1616   13.6035 C.2     1  UNL1        0.2232
     13 O          63.2065   81.8487   14.3479 O.2     1  UNL1       -0.2751
     14 N          61.9861   81.3196   12.1163 N.am    1  UNL1       -0.3022
     15 H          61.2600   80.8686   11.6277 H       1  UNL1        0.1497
     16 O          62.2834   90.4850   11.1729 O.3     1  UNL1       -0.4352
     17 C          63.5377   91.2030   11.5743 C.ar    1  UNL1        0.1578
     18 C          64.3469   91.9327   10.5433 C.ar    1  UNL1        0.0415
     19 C          65.6012   92.6507   10.9447 C.ar    1  UNL1        0.0401
     20 C          66.0464   92.6391   12.3771 C.ar    1  UNL1        0.1396
     21 C          65.2372   91.9095   13.4080 C.ar    1  UNL1        0.0514
     22 C          63.9829   91.1914   13.0067 C.ar    1  UNL1        0.0952
     23 CL         63.1737   90.4618   14.0376 Cl      1  UNL1       -0.0790
     24 O          67.3007   93.3571   12.7785 O.3     1  UNL1       -0.4754
     25 C          68.3676   92.6322   13.5441 C.3     1  UNL1        0.2053
     26 C          68.4465   92.7718   15.0355 C.3     1  UNL1        0.0438
     27 C          68.9712   93.4824   16.2478 C.3     1  UNL1        0.0038
     28 C          68.0583   92.3029   16.4064 C.3     1  UNL1        0.0038
@<TRIPOS>BOND
     1    11    12    1
     2    12    13    2
     3    12    14   am
     4    14     9    1
     5     9    10    1
     6     9     7    1
     7     7     8    2
     8     8     1    1
     9     1     2   ar
    10     2     3   ar
    11     3     4   ar
    12     4    16    1
    13    16    17    1
    14    17    18   ar
    15    18    19   ar
    16    19    20   ar
    17    20    24    1
    18    24    25    1
    19    25    26    1
    20    26    27    1
    21    27    28    1
    22    20    21   ar
    23    21    22   ar
    24    22    23    1
    25     4     5   ar
    26     5     6   ar
    27     6     1   ar
    28    22    17   ar
    29    28    26    1
    30    14    15    1
