@<TRIPOS>MOLECULE
*****
 31 33 0 0 0
SMALL
GASTEIGER

@<TRIPOS>ATOM
      1 C          61.1782   88.6638   11.3697 C.2     1  UNL1        0.2430
      2 O          59.9111   87.8914   11.5885 O.2     1  UNL1       -0.2732
      3 N          62.4080   87.9625   10.8739 N.am    1  UNL1       -0.2972
      4 H          63.2396   88.4695   10.7303 H       1  UNL1        0.1500
      5 C          61.2154   90.1376   11.6467 C.3     1  UNL1        0.1759
      6 C          63.6124   91.1168   11.8602 C.2     1  UNL1        0.2462
      7 O          63.8151   90.9423   10.3842 O.2     1  UNL1       -0.2701
      8 N          62.3126   90.7144   12.4914 N.am    1  UNL1       -0.2931
      9 H          62.1796   90.8289   13.4601 H       1  UNL1        0.1502
     10 C          66.9039   92.8473   14.3943 C.ar    1  UNL1        0.0685
     11 C          66.1505   91.6391   14.8661 C.ar    1  UNL1        0.0104
     12 C          65.0533   91.0622   14.0214 C.ar    1  UNL1        0.0052
     13 C          64.7096   91.6936   12.7049 C.ar    1  UNL1        0.0534
     14 C          65.4630   92.9018   12.2331 C.ar    1  UNL1        0.0052
     15 C          66.5601   93.4786   13.0778 C.ar    1  UNL1        0.0104
     16 N          69.0982   94.0009   16.0837 N.1     1  UNL1       -0.1908
     17 C          68.0010   93.4241   15.2390 C.1     1  UNL1        0.1004
     18 C          62.3707   86.4888   10.5970 C.3     1  UNL1        0.1169
     19 C          62.7084   85.5124   11.6846 C.ar    1  UNL1       -0.0003
     20 C          63.3004   86.0007   12.9734 C.ar    1  UNL1       -0.0015
     21 C          63.6380   85.0244   14.0610 C.ar    1  UNL1        0.0111
     22 C          63.3837   83.5599   13.8597 C.ar    1  UNL1        0.0577
     23 CL         63.7214   82.5836   14.9473 Cl      1  UNL1       -0.0822
     24 C          62.7918   83.0717   12.5708 C.ar    1  UNL1        0.0111
     25 C          62.4541   84.0480   11.4833 C.ar    1  UNL1       -0.0015
     26 C          61.9958   85.9914    9.2324 C.ar    1  UNL1       -0.0003
     27 C          63.0177   85.3000    8.3792 C.ar    1  UNL1       -0.0024
     28 C          62.6428   84.8025    7.0147 C.ar    1  UNL1       -0.0003
     29 C          61.2460   84.9965    6.5033 C.ar    1  UNL1       -0.0000
     30 C          60.2242   85.6878    7.3565 C.ar    1  UNL1       -0.0003
     31 C          60.5991   86.1853    8.7210 C.ar    1  UNL1       -0.0024
@<TRIPOS>BOND
     1    16    17    3
     2    17    10    1
     3    10    11   ar
     4    11    12   ar
     5    12    13   ar
     6    13     6    1
     7     6     7    2
     8     6     8   am
     9     8     5    1
    10     5     1    1
    11     1     2    2
    12     1     3   am
    13     3    18    1
    14    18    26    1
    15    26    27   ar
    16    27    28   ar
    17    28    29   ar
    18    29    30   ar
    19    30    31   ar
    20    18    19    1
    21    19    20   ar
    22    20    21   ar
    23    21    22   ar
    24    22    23    1
    25    22    24   ar
    26    24    25   ar
    27    13    14   ar
    28    14    15   ar
    29    15    10   ar
    30    31    26   ar
    31    25    19   ar
    32     8     9    1
    33     3     4    1
@<TRIPOS>MOLECULE
*****
 31 33 0 0 0
SMALL
GASTEIGER

@<TRIPOS>ATOM
      1 C          61.1927   88.5596   11.4380 C.2     1  UNL1        0.2430
      2 O          59.9185   87.7765   11.5517 O.2     1  UNL1       -0.2732
      3 N          62.4676   87.8664   11.0582 N.am    1  UNL1       -0.2972
      4 H          63.3040   88.3804   10.9835 H       1  UNL1        0.1500
      5 C          61.1922   90.0358   11.7041 C.3     1  UNL1        0.1759
      6 C          63.5795   91.0402   11.9092 C.2     1  UNL1        0.2462
      7 O          63.7977   90.8212   10.4414 O.2     1  UNL1       -0.2701
      8 N          62.2768   90.6475   12.5405 N.am    1  UNL1       -0.2931
      9 H          62.1335   90.7912   13.5039 H       1  UNL1        0.1502
     10 C          66.8332   92.8752   14.4185 C.ar    1  UNL1        0.0685
     11 C          66.5008   93.4591   13.0774 C.ar    1  UNL1        0.0104
     12 C          65.4162   92.8474   12.2410 C.ar    1  UNL1        0.0052
     13 C          64.6641   91.6518   12.7456 C.ar    1  UNL1        0.0534
     14 C          64.9964   91.0679   14.0867 C.ar    1  UNL1        0.0052
     15 C          66.0810   91.6796   14.9231 C.ar    1  UNL1        0.0104
     16 N          69.0023   94.0985   16.0913 N.1     1  UNL1       -0.1908
     17 C          67.9177   93.4868   15.2549 C.1     1  UNL1        0.1004
     18 C          62.4682   86.3903   10.7920 C.3     1  UNL1        0.1169
     19 C          62.1813   85.8768    9.4121 C.ar    1  UNL1       -0.0003
     20 C          63.2479   85.1540    8.6440 C.ar    1  UNL1       -0.0015
     21 C          62.9611   84.6406    7.2642 C.ar    1  UNL1        0.0111
     22 C          61.6076   84.8499    6.6524 C.ar    1  UNL1        0.0577
     23 CL         61.3207   84.3365    5.2725 Cl      1  UNL1       -0.0822
     24 C          60.5410   85.5727    7.4205 C.ar    1  UNL1        0.0111
     25 C          60.8279   86.0862    8.8003 C.ar    1  UNL1       -0.0015
     26 C          62.7557   85.4275   11.9058 C.ar    1  UNL1       -0.0003
     27 C          62.4379   83.9710   11.7388 C.ar    1  UNL1       -0.0024
     28 C          62.7254   83.0082   12.8525 C.ar    1  UNL1       -0.0003
     29 C          63.3307   83.5019   14.1332 C.ar    1  UNL1       -0.0000
     30 C          63.6484   84.9583   14.3001 C.ar    1  UNL1       -0.0003
     31 C          63.3609   85.9211   13.1864 C.ar    1  UNL1       -0.0024
@<TRIPOS>BOND
     1    16    17    3
     2    17    10    1
     3    10    11   ar
     4    11    12   ar
     5    12    13   ar
     6    13     6    1
     7     6     7    2
     8     6     8   am
     9     8     5    1
    10     5     1    1
    11     1     2    2
    12     1     3   am
    13     3    18    1
    14    18    26    1
    15    26    27   ar
    16    27    28   ar
    17    28    29   ar
    18    29    30   ar
    19    30    31   ar
    20    18    19    1
    21    19    20   ar
    22    20    21   ar
    23    21    22   ar
    24    22    23    1
    25    22    24   ar
    26    24    25   ar
    27    13    14   ar
    28    14    15   ar
    29    15    10   ar
    30    31    26   ar
    31    25    19   ar
    32     8     9    1
    33     3     4    1
@<TRIPOS>MOLECULE
*****
 31 33 0 0 0
SMALL
GASTEIGER

@<TRIPOS>ATOM
      1 C          63.5372   88.9470   15.9859 C.2     1  UNL1        0.2430
      2 O          62.7895   90.2144   16.2767 O.2     1  UNL1       -0.2732
      3 N          64.5650   88.9163   14.8938 N.am    1  UNL1       -0.2972
      4 H          65.0557   88.0844   14.7029 H       1  UNL1        0.1500
      5 C          63.2571   87.7103   16.7873 C.3     1  UNL1        0.1759
      6 C          64.0310   85.7020   15.3319 C.2     1  UNL1        0.2462
      7 O          65.4143   86.2789   15.2715 O.2     1  UNL1       -0.2701
      8 N          62.9524   86.4177   16.0898 N.am    1  UNL1       -0.2931
      9 H          62.0445   86.0391   16.1295 H       1  UNL1        0.1502
     10 C          63.1169   81.8244   13.2396 C.ar    1  UNL1        0.0685
     11 C          64.2628   82.6743   12.7767 C.ar    1  UNL1        0.0104
     12 C          64.5675   83.9669   13.4741 C.ar    1  UNL1        0.0052
     13 C          63.7263   84.4095   14.6345 C.ar    1  UNL1        0.0534
     14 C          62.5803   83.5595   15.0973 C.ar    1  UNL1        0.0052
     15 C          62.2756   82.2669   14.3999 C.ar    1  UNL1        0.0104
     16 N          62.5074   79.2392   11.8446 N.1     1  UNL1       -0.1908
     17 C          62.8121   80.5318   12.5421 C.1     1  UNL1        0.1004
     18 C          64.8451   90.1529   14.0924 C.3     1  UNL1        0.1169
     19 C          65.8416   91.1584   14.5885 C.ar    1  UNL1       -0.0003
     20 C          67.1835   91.2731   13.9282 C.ar    1  UNL1       -0.0015
     21 C          68.1800   92.2786   14.4242 C.ar    1  UNL1        0.0111
     22 C          67.8346   93.1693   15.5806 C.ar    1  UNL1        0.0577
     23 CL         68.8311   94.1747   16.0767 Cl      1  UNL1       -0.0822
     24 C          66.4926   93.0545   16.2410 C.ar    1  UNL1        0.0111
     25 C          65.4962   92.0491   15.7449 C.ar    1  UNL1       -0.0015
     26 C          64.1287   90.3841   12.7950 C.ar    1  UNL1       -0.0003
     27 C          64.4388   91.6003   11.9735 C.ar    1  UNL1       -0.0024
     28 C          63.7225   91.8316   10.6760 C.ar    1  UNL1       -0.0003
     29 C          62.6960   90.8466   10.2001 C.ar    1  UNL1       -0.0000
     30 C          62.3860   89.6305   11.0216 C.ar    1  UNL1       -0.0003
     31 C          63.1024   89.3993   12.3191 C.ar    1  UNL1       -0.0024
@<TRIPOS>BOND
     1    16    17    3
     2    17    10    1
     3    10    11   ar
     4    11    12   ar
     5    12    13   ar
     6    13     6    1
     7     6     7    2
     8     6     8   am
     9     8     5    1
    10     5     1    1
    11     1     2    2
    12     1     3   am
    13     3    18    1
    14    18    26    1
    15    26    27   ar
    16    27    28   ar
    17    28    29   ar
    18    29    30   ar
    19    30    31   ar
    20    18    19    1
    21    19    20   ar
    22    20    21   ar
    23    21    22   ar
    24    22    23    1
    25    22    24   ar
    26    24    25   ar
    27    13    14   ar
    28    14    15   ar
    29    15    10   ar
    30    31    26   ar
    31    25    19   ar
    32     8     9    1
    33     3     4    1
@<TRIPOS>MOLECULE
*****
 31 33 0 0 0
SMALL
GASTEIGER

@<TRIPOS>ATOM
      1 C          63.7678   87.2839   15.7970 C.2     1  UNL1        0.2430
      2 O          62.7831   88.1884   16.4767 O.2     1  UNL1       -0.2732
      3 N          64.4925   87.7514   14.5697 N.am    1  UNL1       -0.2972
      4 H          65.1388   87.1577   14.1236 H       1  UNL1        0.1500
      5 C          64.0278   85.9118   16.3446 C.3     1  UNL1        0.1759
      6 C          62.7276   84.1822   14.9065 C.2     1  UNL1        0.2462
      7 O          61.4322   84.8258   15.3037 O.2     1  UNL1       -0.2701
      8 N          64.0254   84.7252   15.4269 N.am    1  UNL1       -0.2931
      9 H          64.8756   84.3028   15.1662 H       1  UNL1        0.1502
     10 C          62.7203   80.6226   12.1535 C.ar    1  UNL1        0.0685
     11 C          62.0223   80.5470   13.4790 C.ar    1  UNL1        0.0104
     12 C          62.0247   81.7336   14.3967 C.ar    1  UNL1        0.0052
     13 C          62.7252   82.9957   13.9888 C.ar    1  UNL1        0.0534
     14 C          63.4232   83.0713   12.6633 C.ar    1  UNL1        0.0052
     15 C          63.4207   81.8847   11.7457 C.ar    1  UNL1        0.0104
     16 N          62.7154   78.2495   10.3182 N.1     1  UNL1       -0.1908
     17 C          62.7178   79.4360   11.2359 C.1     1  UNL1        0.1004
     18 C          64.2326   89.1234   14.0222 C.3     1  UNL1        0.1169
     19 C          63.4040   89.2919   12.7831 C.ar    1  UNL1       -0.0003
     20 C          63.1055   90.6663   12.2617 C.ar    1  UNL1       -0.0015
     21 C          62.2769   90.8348   11.0227 C.ar    1  UNL1        0.0111
     22 C          61.7469   89.6290   10.3052 C.ar    1  UNL1        0.0577
     23 CL         60.9182   89.7975    9.0662 Cl      1  UNL1       -0.0822
     24 C          62.0453   88.2546   10.8267 C.ar    1  UNL1        0.0111
     25 C          62.8739   88.0860   12.0657 C.ar    1  UNL1       -0.0015
     26 C          64.8011   90.3270   14.7136 C.ar    1  UNL1       -0.0003
     27 C          64.0307   90.9930   15.8150 C.ar    1  UNL1       -0.0024
     28 C          64.5993   92.1966   16.5064 C.ar    1  UNL1       -0.0003
     29 C          65.9383   92.7342   16.0964 C.ar    1  UNL1       -0.0000
     30 C          66.7087   92.0683   14.9950 C.ar    1  UNL1       -0.0003
     31 C          66.1401   90.8647   14.3036 C.ar    1  UNL1       -0.0024
@<TRIPOS>BOND
     1    16    17    3
     2    17    10    1
     3    10    11   ar
     4    11    12   ar
     5    12    13   ar
     6    13     6    1
     7     6     7    2
     8     6     8   am
     9     8     5    1
    10     5     1    1
    11     1     2    2
    12     1     3   am
    13     3    18    1
    14    18    26    1
    15    26    27   ar
    16    27    28   ar
    17    28    29   ar
    18    29    30   ar
    19    30    31   ar
    20    18    19    1
    21    19    20   ar
    22    20    21   ar
    23    21    22   ar
    24    22    23    1
    25    22    24   ar
    26    24    25   ar
    27    13    14   ar
    28    14    15   ar
    29    15    10   ar
    30    31    26   ar
    31    25    19   ar
    32     8     9    1
    33     3     4    1
@<TRIPOS>MOLECULE
*****
 31 33 0 0 0
SMALL
GASTEIGER

@<TRIPOS>ATOM
      1 C          62.1589   88.5825   10.9600 C.2     1  UNL1        0.2430
      2 O          62.7945   88.4413    9.6087 O.2     1  UNL1       -0.2732
      3 N          61.8827   87.3639   11.7899 N.am    1  UNL1       -0.2972
      4 H          61.4655   87.4565   12.6768 H       1  UNL1        0.1500
      5 C          61.7994   89.9423   11.4814 C.3     1  UNL1        0.1759
      6 C          63.7049   90.3010   13.2107 C.2     1  UNL1        0.2462
      7 O          63.4950   88.9097   13.7306 O.2     1  UNL1       -0.2701
      8 N          62.8571   90.8173   12.0862 N.am    1  UNL1       -0.2931
      9 H          62.9949   91.7304   11.7449 H       1  UNL1        0.1502
     10 C          66.8779   92.9260   15.0249 C.ar    1  UNL1        0.0685
     11 C          65.8697   92.2499   15.9061 C.ar    1  UNL1        0.0104
     12 C          64.8120   91.3749   15.3014 C.ar    1  UNL1        0.0052
     13 C          64.7626   91.1760   13.8155 C.ar    1  UNL1        0.0534
     14 C          65.7707   91.8520   12.9343 C.ar    1  UNL1        0.0052
     15 C          66.8284   92.7270   13.5391 C.ar    1  UNL1        0.0104
     16 N          68.9933   94.6760   16.2344 N.1     1  UNL1       -0.1908
     17 C          67.9356   93.8010   15.6297 C.1     1  UNL1        0.1004
     18 C          62.2420   86.0041   11.2685 C.3     1  UNL1        0.1169
     19 C          62.0556   85.6849    9.8147 C.ar    1  UNL1       -0.0003
     20 C          63.1513   85.0033    9.0500 C.ar    1  UNL1       -0.0015
     21 C          62.9648   84.6840    7.5963 C.ar    1  UNL1        0.0111
     22 C          61.6827   85.0464    6.9073 C.ar    1  UNL1        0.0577
     23 CL         61.4962   84.7272    5.4535 Cl      1  UNL1       -0.0822
     24 C          60.5870   85.7281    7.6720 C.ar    1  UNL1        0.0111
     25 C          60.7734   86.0473    9.1257 C.ar    1  UNL1       -0.0015
     26 C          62.7879   84.9636   12.2008 C.ar    1  UNL1       -0.0003
     27 C          62.5325   83.5096   11.9343 C.ar    1  UNL1       -0.0024
     28 C          63.0784   82.4691   12.8666 C.ar    1  UNL1       -0.0003
     29 C          63.8797   82.8824   14.0654 C.ar    1  UNL1       -0.0000
     30 C          64.1351   84.3363   14.3319 C.ar    1  UNL1       -0.0003
     31 C          63.5892   85.3768   13.3996 C.ar    1  UNL1       -0.0024
@<TRIPOS>BOND
     1    16    17    3
     2    17    10    1
     3    10    11   ar
     4    11    12   ar
     5    12    13   ar
     6    13     6    1
     7     6     7    2
     8     6     8   am
     9     8     5    1
    10     5     1    1
    11     1     2    2
    12     1     3   am
    13     3    18    1
    14    18    26    1
    15    26    27   ar
    16    27    28   ar
    17    28    29   ar
    18    29    30   ar
    19    30    31   ar
    20    18    19    1
    21    19    20   ar
    22    20    21   ar
    23    21    22   ar
    24    22    23    1
    25    22    24   ar
    26    24    25   ar
    27    13    14   ar
    28    14    15   ar
    29    15    10   ar
    30    31    26   ar
    31    25    19   ar
    32     8     9    1
    33     3     4    1
@<TRIPOS>MOLECULE
*****
 31 33 0 0 0
SMALL
GASTEIGER

@<TRIPOS>ATOM
      1 C          63.7518   87.7455   14.9712 C.2     1  UNL1        0.2430
      2 O          63.2145   88.8477   15.8351 O.2     1  UNL1       -0.2732
      3 N          63.9604   87.9766   13.5038 N.am    1  UNL1       -0.2972
      4 H          64.3131   87.2532   12.9368 H       1  UNL1        0.1500
      5 C          64.0806   86.4121   15.5746 C.3     1  UNL1        0.1759
      6 C          62.8113   84.3544   14.6235 C.2     1  UNL1        0.2462
      7 O          61.5810   84.7652   15.3769 O.2     1  UNL1       -0.2701
      8 N          64.0611   85.1779   14.7223 N.am    1  UNL1       -0.2931
      9 H          64.8686   84.9083   14.2278 H       1  UNL1        0.1502
     10 C          62.7527   80.6518   12.0667 C.ar    1  UNL1        0.0685
     11 C          62.1493   80.6248   13.4397 C.ar    1  UNL1        0.0104
     12 C          62.1688   81.8590   14.2919 C.ar    1  UNL1        0.0052
     13 C          62.7917   83.1202   13.7712 C.ar    1  UNL1        0.0534
     14 C          63.3951   83.1473   12.3982 C.ar    1  UNL1        0.0052
     15 C          63.3756   81.9131   11.5459 C.ar    1  UNL1        0.0104
     16 N          62.7136   78.1834   10.3621 N.1     1  UNL1       -0.1908
     17 C          62.7331   79.4176   11.2144 C.1     1  UNL1        0.1004
     18 C          63.6317   89.3099   12.9004 C.3     1  UNL1        0.1169
     19 C          64.4727   90.5086   13.2263 C.ar    1  UNL1       -0.0003
     20 C          64.6311   91.6096   12.2201 C.ar    1  UNL1       -0.0015
     21 C          65.4720   92.8082   12.5460 C.ar    1  UNL1        0.0111
     22 C          66.1544   92.9057   13.8781 C.ar    1  UNL1        0.0577
     23 CL         66.9954   94.1044   14.2041 Cl      1  UNL1       -0.0822
     24 C          65.9960   91.8047   14.8844 C.ar    1  UNL1        0.0111
     25 C          65.1551   90.6061   14.5585 C.ar    1  UNL1       -0.0015
     26 C          62.4621   89.4447   11.9710 C.ar    1  UNL1       -0.0003
     27 C          62.5570   88.9275   10.5661 C.ar    1  UNL1       -0.0024
     28 C          61.3874   89.0623    9.6367 C.ar    1  UNL1       -0.0003
     29 C          60.1228   89.7142   10.1122 C.ar    1  UNL1       -0.0000
     30 C          60.0280   90.2313   11.5170 C.ar    1  UNL1       -0.0003
     31 C          61.1976   90.0966   12.4464 C.ar    1  UNL1       -0.0024
@<TRIPOS>BOND
     1    16    17    3
     2    17    10    1
     3    10    11   ar
     4    11    12   ar
     5    12    13   ar
     6    13     6    1
     7     6     7    2
     8     6     8   am
     9     8     5    1
    10     5     1    1
    11     1     2    2
    12     1     3   am
    13     3    18    1
    14    18    26    1
    15    26    27   ar
    16    27    28   ar
    17    28    29   ar
    18    29    30   ar
    19    30    31   ar
    20    18    19    1
    21    19    20   ar
    22    20    21   ar
    23    21    22   ar
    24    22    23    1
    25    22    24   ar
    26    24    25   ar
    27    13    14   ar
    28    14    15   ar
    29    15    10   ar
    30    31    26   ar
    31    25    19   ar
    32     8     9    1
    33     3     4    1
@<TRIPOS>MOLECULE
*****
 31 33 0 0 0
SMALL
GASTEIGER

@<TRIPOS>ATOM
      1 C          64.2801   90.8598   13.1429 C.2     1  UNL1        0.2430
      2 O          65.2681   90.4505   14.1947 O.2     1  UNL1       -0.2732
      3 N          64.5660   92.0417   12.2647 N.am    1  UNL1       -0.2972
      4 H          63.9175   92.3104   11.5744 H       1  UNL1        0.1500
      5 C          63.0061   90.0872   12.9694 C.3     1  UNL1        0.1759
      6 C          61.5941   88.9333   11.1188 C.2     1  UNL1        0.2462
      7 O          60.4223   89.8003   11.4723 O.2     1  UNL1       -0.2701
      8 N          62.8860   89.0767   11.8673 N.am    1  UNL1       -0.2931
      9 H          63.6551   88.5076   11.6353 H       1  UNL1        0.1502
     10 C          61.2339   85.9018    7.8126 C.ar    1  UNL1        0.0685
     11 C          60.1437   86.9092    8.0286 C.ar    1  UNL1        0.0104
     12 C          60.2638   87.9197    9.1306 C.ar    1  UNL1        0.0052
     13 C          61.4740   87.9228   10.0167 C.ar    1  UNL1        0.0534
     14 C          62.5642   86.9155    9.8008 C.ar    1  UNL1        0.0052
     15 C          62.4441   85.9050    8.6987 C.ar    1  UNL1        0.0104
     16 N          60.9937   83.8809    5.6086 N.1     1  UNL1       -0.1908
     17 C          61.1138   84.8913    6.7106 C.1     1  UNL1        0.1004
     18 C          65.8399   92.8144   12.4382 C.3     1  UNL1        0.1169
     19 C          66.2887   93.7699   11.3726 C.ar    1  UNL1       -0.0003
     20 C          66.9038   93.2480   10.1080 C.ar    1  UNL1       -0.0015
     21 C          67.3526   94.2035    9.0423 C.ar    1  UNL1        0.0111
     22 C          67.1862   95.6809    9.2413 C.ar    1  UNL1        0.0577
     23 CL         67.6349   96.6365    8.1756 Cl      1  UNL1       -0.0822
     24 C          66.5710   96.2028   10.5059 C.ar    1  UNL1        0.0111
     25 C          66.1223   95.2473   11.5715 C.ar    1  UNL1       -0.0015
     26 C          66.6652   92.6314   13.6774 C.ar    1  UNL1       -0.0003
     27 C          66.1425   93.1012   15.0027 C.ar    1  UNL1       -0.0024
     28 C          66.9677   92.9183   16.2418 C.ar    1  UNL1       -0.0003
     29 C          68.3156   92.2656   16.1558 C.ar    1  UNL1       -0.0000
     30 C          68.8382   91.7959   14.8305 C.ar    1  UNL1       -0.0003
     31 C          68.0130   91.9788   13.5914 C.ar    1  UNL1       -0.0024
@<TRIPOS>BOND
     1    16    17    3
     2    17    10    1
     3    10    11   ar
     4    11    12   ar
     5    12    13   ar
     6    13     6    1
     7     6     7    2
     8     6     8   am
     9     8     5    1
    10     5     1    1
    11     1     2    2
    12     1     3   am
    13     3    18    1
    14    18    26    1
    15    26    27   ar
    16    27    28   ar
    17    28    29   ar
    18    29    30   ar
    19    30    31   ar
    20    18    19    1
    21    19    20   ar
    22    20    21   ar
    23    21    22   ar
    24    22    23    1
    25    22    24   ar
    26    24    25   ar
    27    13    14   ar
    28    14    15   ar
    29    15    10   ar
    30    31    26   ar
    31    25    19   ar
    32     8     9    1
    33     3     4    1
@<TRIPOS>MOLECULE
*****
 31 33 0 0 0
SMALL
GASTEIGER

@<TRIPOS>ATOM
      1 C          63.9781   91.3977   12.1589 C.2     1  UNL1        0.2430
      2 O          64.1653   91.8744   13.5687 O.2     1  UNL1       -0.2732
      3 N          64.8396   91.9472   11.0607 N.am    1  UNL1       -0.2972
      4 H          64.7167   91.6343   10.1354 H       1  UNL1        0.1500
      5 C          62.9294   90.3715   11.8471 C.3     1  UNL1        0.1759
      6 C          62.7080   87.8093   11.4780 C.2     1  UNL1        0.2462
      7 O          62.1875   88.0539   10.0926 O.2     1  UNL1       -0.2701
      8 N          63.0789   88.9681   12.3552 N.am    1  UNL1       -0.2931
      9 H          63.4205   88.8076   13.2645 H       1  UNL1        0.1502
     10 C          63.1565   83.5992   13.0024 C.ar    1  UNL1        0.0685
     11 C          62.5114   83.8503   11.6717 C.ar    1  UNL1        0.0104
     12 C          62.3619   85.2537   11.1636 C.ar    1  UNL1        0.0052
     13 C          62.8575   86.4059   11.9861 C.ar    1  UNL1        0.0534
     14 C          63.5026   86.1548   13.3168 C.ar    1  UNL1        0.0052
     15 C          63.6521   84.7514   13.8249 C.ar    1  UNL1        0.0104
     16 N          63.4555   80.7924   14.0186 N.1     1  UNL1       -0.1908
     17 C          63.3060   82.1958   13.5105 C.1     1  UNL1        0.1004
     18 C          65.8882   92.9734   11.3724 C.3     1  UNL1        0.1169
     19 C          66.6864   92.8696   12.6382 C.ar    1  UNL1       -0.0003
     20 C          66.4759   93.8639   13.7414 C.ar    1  UNL1       -0.0015
     21 C          67.2740   93.7601   15.0071 C.ar    1  UNL1        0.0111
     22 C          68.2828   92.6619   15.1697 C.ar    1  UNL1        0.0577
     23 CL         69.0810   92.5581   16.4355 Cl      1  UNL1       -0.0822
     24 C          68.4934   91.6676   14.0665 C.ar    1  UNL1        0.0111
     25 C          67.6952   91.7714   12.8008 C.ar    1  UNL1       -0.0015
     26 C          66.1387   94.1035   10.4184 C.ar    1  UNL1       -0.0003
     27 C          65.3918   95.3951   10.5731 C.ar    1  UNL1       -0.0024
     28 C          65.6423   96.5252    9.6191 C.ar    1  UNL1       -0.0003
     29 C          66.6397   96.3636    8.5103 C.ar    1  UNL1       -0.0000
     30 C          67.3866   95.0720    8.3557 C.ar    1  UNL1       -0.0003
     31 C          67.1361   93.9420    9.3097 C.ar    1  UNL1       -0.0024
@<TRIPOS>BOND
     1    16    17    3
     2    17    10    1
     3    10    11   ar
     4    11    12   ar
     5    12    13   ar
     6    13     6    1
     7     6     7    2
     8     6     8   am
     9     8     5    1
    10     5     1    1
    11     1     2    2
    12     1     3   am
    13     3    18    1
    14    18    26    1
    15    26    27   ar
    16    27    28   ar
    17    28    29   ar
    18    29    30   ar
    19    30    31   ar
    20    18    19    1
    21    19    20   ar
    22    20    21   ar
    23    21    22   ar
    24    22    23    1
    25    22    24   ar
    26    24    25   ar
    27    13    14   ar
    28    14    15   ar
    29    15    10   ar
    30    31    26   ar
    31    25    19   ar
    32     8     9    1
    33     3     4    1
@<TRIPOS>MOLECULE
*****
 31 33 0 0 0
SMALL
GASTEIGER

@<TRIPOS>ATOM
      1 C          63.9272   86.2136   13.8088 C.2     1  UNL1        0.2430
      2 O          64.8771   85.0532   13.8382 O.2     1  UNL1       -0.2732
      3 N          62.7719   86.2131   12.8521 N.am    1  UNL1       -0.2972
      4 H          62.1484   86.9748   12.8328 H       1  UNL1        0.1500
      5 C          64.1325   87.3747   14.7361 C.3     1  UNL1        0.1759
      6 C          63.8737   89.5537   13.3452 C.2     1  UNL1        0.2462
      7 O          62.4675   89.1646   12.9974 O.2     1  UNL1       -0.2701
      8 N          64.7063   88.6587   14.2146 N.am    1  UNL1       -0.2931
      9 H          65.6293   88.9141   14.4429 H       1  UNL1        0.1502
     10 C          65.5949   93.4059   11.7805 C.ar    1  UNL1        0.0685
     11 C          65.9364   92.9394   13.1646 C.ar    1  UNL1        0.0104
     12 C          65.3627   91.6553   13.6861 C.ar    1  UNL1        0.0052
     13 C          64.4475   90.8378   12.8236 C.ar    1  UNL1        0.0534
     14 C          64.1060   91.3043   11.4395 C.ar    1  UNL1        0.0052
     15 C          64.6797   92.5884   10.9180 C.ar    1  UNL1        0.0104
     16 N          66.7424   95.9740   10.7374 N.1     1  UNL1       -0.1908
     17 C          66.1686   94.6900   11.2590 C.1     1  UNL1        0.1004
     18 C          62.5665   85.0522   11.9247 C.3     1  UNL1        0.1169
     19 C          62.6418   83.6495   12.4510 C.ar    1  UNL1       -0.0003
     20 C          63.1545   82.5459   11.5739 C.ar    1  UNL1       -0.0015
     21 C          63.2298   81.1433   12.1000 C.ar    1  UNL1        0.0111
     22 C          62.7924   80.8442   13.5033 C.ar    1  UNL1        0.0577
     23 CL         62.8676   79.4415   14.0295 Cl      1  UNL1       -0.0822
     24 C          62.2797   81.9478   14.3804 C.ar    1  UNL1        0.0111
     25 C          62.2044   83.3504   13.8542 C.ar    1  UNL1       -0.0015
     26 C          62.2859   85.2938   10.4712 C.ar    1  UNL1       -0.0003
     27 C          63.2392   84.7885    9.4291 C.ar    1  UNL1       -0.0024
     28 C          62.9586   85.0301    7.9756 C.ar    1  UNL1       -0.0003
     29 C          61.7246   85.7771    7.5641 C.ar    1  UNL1       -0.0000
     30 C          60.7713   86.2825    8.6061 C.ar    1  UNL1       -0.0003
     31 C          61.0519   86.0408   10.0596 C.ar    1  UNL1       -0.0024
@<TRIPOS>BOND
     1    16    17    3
     2    17    10    1
     3    10    11   ar
     4    11    12   ar
     5    12    13   ar
     6    13     6    1
     7     6     7    2
     8     6     8   am
     9     8     5    1
    10     5     1    1
    11     1     2    2
    12     1     3   am
    13     3    18    1
    14    18    26    1
    15    26    27   ar
    16    27    28   ar
    17    28    29   ar
    18    29    30   ar
    19    30    31   ar
    20    18    19    1
    21    19    20   ar
    22    20    21   ar
    23    21    22   ar
    24    22    23    1
    25    22    24   ar
    26    24    25   ar
    27    13    14   ar
    28    14    15   ar
    29    15    10   ar
    30    31    26   ar
    31    25    19   ar
    32     8     9    1
    33     3     4    1
