@<TRIPOS>MOLECULE
*****
 40 44 0 0 0
SMALL
GASTEIGER

@<TRIPOS>ATOM
      1 C          64.1676   85.8571   15.3873 C.ar    1  UNL1        0.1383
      2 C          63.4863   85.0321   16.4385 C.ar    1  UNL1        0.0369
      3 C          62.6816   85.7018   17.5129 C.ar    1  UNL1        0.0028
      4 C          62.5583   87.1965   17.5357 C.ar    1  UNL1       -0.0041
      5 C          63.2395   88.0216   16.4845 C.ar    1  UNL1       -0.0186
      6 C          64.0442   87.3518   15.4103 C.ar    1  UNL1        0.0326
      7 O          64.9722   85.1874   14.3131 O.3     1  UNL1       -0.4751
      8 C          64.6170   83.8010   13.8640 C.3     1  UNL1        0.2118
      9 C          63.3041   83.5460   13.1847 C.3     1  UNL1        0.0960
     10 C          64.5443   82.6470   10.3031 C.3     1  UNL1        0.0738
     11 C          63.5787   83.7712   10.5353 C.ar    1  UNL1        0.1387
     12 O          63.0136   84.6795    9.4839 O.2     1  UNL1       -0.4392
     13 C          62.0944   85.6541   10.1586 C.ar    1  UNL1        0.2289
     14 N          62.0913   85.3481   11.6270 N.ar    1  UNL1       -0.2129
     15 C          63.0087   84.1844   11.8599 C.ar    1  UNL1        0.0960
     16 C          61.3150   86.7435    9.4833 C.ar    1  UNL1        0.0535
     17 C          60.3167   86.4012    8.4174 C.ar    1  UNL1        0.0046
     18 C          59.5373   87.4906    7.7422 C.ar    1  UNL1        0.0002
     19 C          59.7564   88.9222    8.1328 C.ar    1  UNL1        0.0000
     20 C          60.7547   89.2644    9.1987 C.ar    1  UNL1        0.0002
     21 C          61.5340   88.1751    9.8739 C.ar    1  UNL1        0.0046
     22 C          63.1161   89.5163   16.5075 C.3     1  UNL1        0.0376
     23 C          63.7116   90.3351   15.4007 C.3     1  UNL1        0.1052
     24 C          63.5941   90.3423   13.9053 C.2     1  UNL1        0.2315
     25 O          62.8324   89.5337   12.8973 O.2     1  UNL1       -0.2745
     26 N          64.5537   91.4932   13.8354 N.am    1  UNL1       -0.2546
     27 C          64.6712   91.4859   15.3308 C.3     1  UNL1        0.1249
     28 C          65.1491   92.3120   12.7286 C.ar    1  UNL1        0.0541
     29 C          66.0596   93.4596   13.0511 C.ar    1  UNL1        0.0146
     30 C          66.6550   94.2784   11.9443 C.ar    1  UNL1       -0.0030
     31 C          66.3399   93.9496   10.5151 C.ar    1  UNL1       -0.0227
     32 C          65.4294   92.8020   10.1926 C.ar    1  UNL1       -0.0030
     33 C          64.8340   91.9832   11.2995 C.ar    1  UNL1        0.0146
     34 C          66.9353   94.7684    9.4083 C.3     1  UNL1        0.0189
     35 C          65.9994   95.8935    9.7372 C.3     1  UNL1        0.0044
     36 C          67.8712   93.6433    9.0794 C.3     1  UNL1        0.0044
     37 C          67.5307   95.5872    8.3015 C.3     1  UNL1        0.0044
     38 C          65.4328   92.2945   16.3388 C.2     1  UNL1        0.0692
     39 O          64.7343   92.8288   17.5540 O.co2   1  UNL1       -0.5475
     40 O          66.8929   92.5689   16.1315 O.co2   1  UNL1       -0.5475
@<TRIPOS>UNITY_ATOM_ATTR
39 1
charge -1
@<TRIPOS>BOND
     1    10    11    1
     2    11    12   ar
     3    12    13   ar
     4    13    16    1
     5    16    17   ar
     6    17    18   ar
     7    18    19   ar
     8    19    20   ar
     9    20    21   ar
    10    13    14   ar
    11    14    15   ar
    12    15     9    1
    13     9     8    1
    14     8     7    1
    15     7     1    1
    16     1     2   ar
    17     2     3   ar
    18     3     4   ar
    19     4     5   ar
    20     5    22    1
    21    23    22    1
    22    23    24    1
    23    24    25    2
    24    24    26   am
    25    26    28    1
    26    28    29   ar
    27    29    30   ar
    28    30    31   ar
    29    31    34    1
    30    34    35    1
    31    34    36    1
    32    34    37    1
    33    31    32   ar
    34    32    33   ar
    35    26    27    1
    36    27    38    1
    37    38    39   ar
    38    38    40   ar
    39     5     6   ar
    40    15    11   ar
    41     6     1   ar
    42    21    16   ar
    43    27    23    1
    44    33    28   ar
@<TRIPOS>MOLECULE
*****
 40 44 0 0 0
SMALL
GASTEIGER

@<TRIPOS>ATOM
      1 C          64.0737   86.0930   15.2376 C.ar    1  UNL1        0.1383
      2 C          63.4678   85.2797   16.3428 C.ar    1  UNL1        0.0369
      3 C          62.8084   85.9644   17.5032 C.ar    1  UNL1        0.0028
      4 C          62.7549   87.4624   17.5583 C.ar    1  UNL1       -0.0041
      5 C          63.3607   88.2758   16.4531 C.ar    1  UNL1       -0.0186
      6 C          64.0201   87.5910   15.2928 C.ar    1  UNL1        0.0326
      7 O          64.7330   85.4083   14.0773 O.3     1  UNL1       -0.4751
      8 C          64.5512   83.9332   13.8749 C.3     1  UNL1        0.2118
      9 C          63.4025   83.4246   13.0552 C.3     1  UNL1        0.0960
     10 C          64.6366   82.5890   10.1521 C.3     1  UNL1        0.0738
     11 C          63.6437   83.6843   10.4058 C.ar    1  UNL1        0.1387
     12 O          63.0437   84.5878    9.3696 O.2     1  UNL1       -0.4392
     13 C          62.1056   85.5303   10.0636 C.ar    1  UNL1        0.2289
     14 N          62.1258   85.2093   11.5287 N.ar    1  UNL1       -0.2129
     15 C          63.0764   84.0684   11.7402 C.ar    1  UNL1        0.0960
     16 C          61.2903   86.6051    9.4077 C.ar    1  UNL1        0.0535
     17 C          60.2153   86.2385    8.4279 C.ar    1  UNL1        0.0046
     18 C          59.4002   87.3133    7.7720 C.ar    1  UNL1        0.0002
     19 C          59.6600   88.7547    8.0958 C.ar    1  UNL1        0.0000
     20 C          60.7350   89.1213    9.0756 C.ar    1  UNL1        0.0002
     21 C          61.5502   88.0465    9.7315 C.ar    1  UNL1        0.0046
     22 C          63.3071   89.7737   16.5083 C.3     1  UNL1        0.0376
     23 C          63.8943   90.5868   15.3928 C.3     1  UNL1        0.1052
     24 C          64.9093   91.6876   15.3031 C.2     1  UNL1        0.2315
     25 O          65.7576   92.4312   16.2916 O.2     1  UNL1       -0.2745
     26 N          64.7246   91.7367   13.8152 N.am    1  UNL1       -0.2546
     27 C          63.7096   90.6359   13.9050 C.3     1  UNL1        0.1249
     28 C          65.3117   92.5497   12.6998 C.ar    1  UNL1        0.0541
     29 C          65.1093   92.1254   11.2754 C.ar    1  UNL1        0.0146
     30 C          65.6964   92.9384   10.1600 C.ar    1  UNL1       -0.0030
     31 C          66.4859   94.1758   10.4690 C.ar    1  UNL1       -0.0227
     32 C          66.6884   94.6002   11.8934 C.ar    1  UNL1       -0.0030
     33 C          66.1012   93.7871   13.0088 C.ar    1  UNL1        0.0146
     34 C          67.0731   94.9889    9.3535 C.3     1  UNL1        0.0189
     35 C          68.0477   93.8863    9.0629 C.3     1  UNL1        0.0044
     36 C          66.0984   96.0914    9.6442 C.3     1  UNL1        0.0044
     37 C          67.6602   95.8019    8.2381 C.3     1  UNL1        0.0044
     38 C          62.8613   89.8922   12.9164 C.2     1  UNL1        0.0692
     39 O          63.0453   88.4150   12.7317 O.co2   1  UNL1       -0.5475
     40 O          61.8290   90.6257   12.1125 O.co2   1  UNL1       -0.5475
@<TRIPOS>UNITY_ATOM_ATTR
39 1
charge -1
@<TRIPOS>BOND
     1    10    11    1
     2    11    12   ar
     3    12    13   ar
     4    13    16    1
     5    16    17   ar
     6    17    18   ar
     7    18    19   ar
     8    19    20   ar
     9    20    21   ar
    10    13    14   ar
    11    14    15   ar
    12    15     9    1
    13     9     8    1
    14     8     7    1
    15     7     1    1
    16     1     2   ar
    17     2     3   ar
    18     3     4   ar
    19     4     5   ar
    20     5    22    1
    21    23    22    1
    22    23    24    1
    23    24    25    2
    24    24    26   am
    25    26    28    1
    26    28    29   ar
    27    29    30   ar
    28    30    31   ar
    29    31    34    1
    30    34    35    1
    31    34    36    1
    32    34    37    1
    33    31    32   ar
    34    32    33   ar
    35    26    27    1
    36    27    38    1
    37    38    39   ar
    38    38    40   ar
    39     5     6   ar
    40    15    11   ar
    41     6     1   ar
    42    21    16   ar
    43    27    23    1
    44    33    28   ar
@<TRIPOS>MOLECULE
*****
 40 44 0 0 0
SMALL
GASTEIGER

@<TRIPOS>ATOM
      1 C          61.2168   91.3186    4.4399 C.ar    1  UNL1        0.1383
      2 C          60.3475   92.2323    3.6277 C.ar    1  UNL1        0.0369
      3 C          58.8766   92.3150    3.9100 C.ar    1  UNL1        0.0028
      4 C          58.2751   91.4841    5.0044 C.ar    1  UNL1       -0.0041
      5 C          59.1444   90.5704    5.8165 C.ar    1  UNL1       -0.0186
      6 C          60.6153   90.4878    5.5342 C.ar    1  UNL1        0.0326
      7 O          62.6877   91.2359    4.1576 O.3     1  UNL1       -0.4751
      8 C          63.1839   91.2869    2.7430 C.3     1  UNL1        0.2118
      9 C          63.4953   92.6080    2.1045 C.3     1  UNL1        0.0960
     10 C          64.5636   94.7010   -0.1600 C.3     1  UNL1        0.0738
     11 C          63.2323   94.0099   -0.1562 C.ar    1  UNL1        0.1387
     12 O          62.1583   94.1595   -1.1925 O.2     1  UNL1       -0.4392
     13 C          61.0035   93.2899   -0.7922 C.ar    1  UNL1        0.2289
     14 N          61.3638   92.6029    0.4916 N.ar    1  UNL1       -0.2129
     15 C          62.7413   93.0479    0.8847 C.ar    1  UNL1        0.0960
     16 C          59.7146   93.1346   -1.5438 C.ar    1  UNL1        0.0535
     17 C          59.6650   93.4226   -3.0150 C.ar    1  UNL1        0.0046
     18 C          58.3761   93.2673   -3.7665 C.ar    1  UNL1        0.0002
     19 C          57.1370   92.8240   -3.0468 C.ar    1  UNL1        0.0000
     20 C          57.1867   92.5360   -1.5755 C.ar    1  UNL1        0.0002
     21 C          58.4755   92.6913   -0.8240 C.ar    1  UNL1        0.0046
     22 C          58.5428   89.7395    6.9108 C.3     1  UNL1        0.0376
     23 C          59.3934   88.7578    7.6609 C.3     1  UNL1        0.1052
     24 C          59.6596   87.2855    7.5532 C.2     1  UNL1        0.2315
     25 O          59.1854   86.1852    6.6507 O.2     1  UNL1       -0.2745
     26 N          60.5963   87.3693    8.7218 N.am    1  UNL1       -0.2546
     27 C          60.3301   88.8415    8.8295 C.3     1  UNL1        0.1249
     28 C          61.4468   86.3875    9.4719 C.ar    1  UNL1        0.0541
     29 C          61.2944   86.2445   10.9573 C.ar    1  UNL1        0.0146
     30 C          62.1449   85.2627   11.7074 C.ar    1  UNL1       -0.0030
     31 C          63.1479   84.4240   10.9721 C.ar    1  UNL1       -0.0227
     32 C          63.3004   84.5670    9.4868 C.ar    1  UNL1       -0.0030
     33 C          62.4498   85.5488    8.7367 C.ar    1  UNL1        0.0146
     34 C          63.9985   83.4422   11.7222 C.3     1  UNL1        0.0189
     35 C          64.2682   82.7011   10.4463 C.3     1  UNL1        0.0044
     36 C          63.7287   84.1833   12.9981 C.3     1  UNL1        0.0044
     37 C          64.8490   82.4604   12.4723 C.3     1  UNL1        0.0044
     38 C          60.8042   89.9418    9.7320 C.2     1  UNL1        0.0692
     39 O          62.2733   90.1975    9.8951 O.co2   1  UNL1       -0.5475
     40 O          59.8093   90.7865   10.4715 O.co2   1  UNL1       -0.5475
@<TRIPOS>UNITY_ATOM_ATTR
39 1
charge -1
@<TRIPOS>BOND
     1    10    11    1
     2    11    12   ar
     3    12    13   ar
     4    13    16    1
     5    16    17   ar
     6    17    18   ar
     7    18    19   ar
     8    19    20   ar
     9    20    21   ar
    10    13    14   ar
    11    14    15   ar
    12    15     9    1
    13     9     8    1
    14     8     7    1
    15     7     1    1
    16     1     2   ar
    17     2     3   ar
    18     3     4   ar
    19     4     5   ar
    20     5    22    1
    21    23    22    1
    22    23    24    1
    23    24    25    2
    24    24    26   am
    25    26    28    1
    26    28    29   ar
    27    29    30   ar
    28    30    31   ar
    29    31    34    1
    30    34    35    1
    31    34    36    1
    32    34    37    1
    33    31    32   ar
    34    32    33   ar
    35    26    27    1
    36    27    38    1
    37    38    39   ar
    38    38    40   ar
    39     5     6   ar
    40    15    11   ar
    41     6     1   ar
    42    21    16   ar
    43    27    23    1
    44    33    28   ar
@<TRIPOS>MOLECULE
*****
 40 44 0 0 0
SMALL
GASTEIGER

@<TRIPOS>ATOM
      1 C          61.8928   86.2341    8.5956 C.ar    1  UNL1        0.1383
      2 C          60.7298   85.7495    7.7817 C.ar    1  UNL1        0.0369
      3 C          59.4977   86.5959    7.6561 C.ar    1  UNL1        0.0028
      4 C          59.4288   87.9268    8.3445 C.ar    1  UNL1       -0.0041
      5 C          60.5918   88.4114    9.1585 C.ar    1  UNL1       -0.0186
      6 C          61.8238   87.5650    9.2840 C.ar    1  UNL1        0.0326
      7 O          63.1249   85.3878    8.7212 O.3     1  UNL1       -0.4751
      8 C          63.0006   83.9187    8.9975 C.3     1  UNL1        0.2118
      9 C          63.8946   83.2679   10.0110 C.3     1  UNL1        0.0960
     10 C          62.8482   80.8451   11.9307 C.3     1  UNL1        0.0738
     11 C          63.0940   82.2627   12.3550 C.ar    1  UNL1        0.1387
     12 O          62.9020   82.8156   13.7361 O.2     1  UNL1       -0.4392
     13 C          63.2643   84.2710   13.7073 C.ar    1  UNL1        0.2289
     14 N          63.6802   84.6175   12.3084 N.ar    1  UNL1       -0.2129
     15 C          63.5750   83.3764   11.4726 C.ar    1  UNL1        0.0960
     16 C          63.2187   85.2141   14.8728 C.ar    1  UNL1        0.0535
     17 C          63.9912   86.4991   14.8285 C.ar    1  UNL1        0.0046
     18 C          63.9456   87.4422   15.9940 C.ar    1  UNL1        0.0002
     19 C          63.1274   87.1004   17.2038 C.ar    1  UNL1        0.0000
     20 C          62.3548   85.8154   17.2481 C.ar    1  UNL1        0.0002
     21 C          62.4005   84.8723   16.0826 C.ar    1  UNL1        0.0046
     22 C          60.5228   89.7423    9.8468 C.3     1  UNL1        0.0376
     23 C          61.6707   90.2103   10.6913 C.3     1  UNL1        0.1052
     24 C          62.9807   90.8884   10.4189 C.2     1  UNL1        0.2315
     25 O          63.6852   91.3794    9.1891 O.2     1  UNL1       -0.2745
     26 N          63.2942   90.8722   11.8857 N.am    1  UNL1       -0.2546
     27 C          61.9843   90.1940   12.1581 C.3     1  UNL1        0.1249
     28 C          64.4422   91.3402   12.7302 C.ar    1  UNL1        0.0541
     29 C          65.1851   92.5896   12.3600 C.ar    1  UNL1        0.0146
     30 C          66.3330   93.0576   13.2045 C.ar    1  UNL1       -0.0030
     31 C          66.7380   92.2762   14.4192 C.ar    1  UNL1       -0.0227
     32 C          65.9951   91.0268   14.7894 C.ar    1  UNL1       -0.0030
     33 C          64.8472   90.5588   13.9448 C.ar    1  UNL1        0.0146
     34 C          67.8860   92.7442   15.2637 C.3     1  UNL1        0.0189
     35 C          66.9494   92.9652   16.4143 C.3     1  UNL1        0.0044
     36 C          68.8225   92.5233   14.1131 C.3     1  UNL1        0.0044
     37 C          69.0339   93.2122   16.1082 C.3     1  UNL1        0.0044
     38 C          61.2798   89.7030   13.3880 C.2     1  UNL1        0.0692
     39 O          59.8563   89.2377   13.3015 O.co2   1  UNL1       -0.5475
     40 O          61.9986   89.6772   14.7043 O.co2   1  UNL1       -0.5475
@<TRIPOS>UNITY_ATOM_ATTR
39 1
charge -1
@<TRIPOS>BOND
     1    10    11    1
     2    11    12   ar
     3    12    13   ar
     4    13    16    1
     5    16    17   ar
     6    17    18   ar
     7    18    19   ar
     8    19    20   ar
     9    20    21   ar
    10    13    14   ar
    11    14    15   ar
    12    15     9    1
    13     9     8    1
    14     8     7    1
    15     7     1    1
    16     1     2   ar
    17     2     3   ar
    18     3     4   ar
    19     4     5   ar
    20     5    22    1
    21    23    22    1
    22    23    24    1
    23    24    25    2
    24    24    26   am
    25    26    28    1
    26    28    29   ar
    27    29    30   ar
    28    30    31   ar
    29    31    34    1
    30    34    35    1
    31    34    36    1
    32    34    37    1
    33    31    32   ar
    34    32    33   ar
    35    26    27    1
    36    27    38    1
    37    38    39   ar
    38    38    40   ar
    39     5     6   ar
    40    15    11   ar
    41     6     1   ar
    42    21    16   ar
    43    27    23    1
    44    33    28   ar
