@<TRIPOS>MOLECULE
*****
 24 27 0 0 0
SMALL
GASTEIGER

@<TRIPOS>ATOM
      1 C          63.9071   89.6132   13.5068 C.ar    1  UNL1        0.0390
      2 C          64.3936   88.4188   14.2730 C.ar    1  UNL1        0.0032
      3 C          64.0119   87.0374   13.8303 C.ar    1  UNL1        0.0001
      4 C          63.1437   86.8504   12.6215 C.ar    1  UNL1        0.0000
      5 C          62.7620   85.4689   12.1788 C.ar    1  UNL1        0.0000
      6 C          61.8938   85.2818   10.9700 C.ar    1  UNL1        0.0000
      7 C          61.4073   86.4762   10.2038 C.ar    1  UNL1        0.0000
      8 C          60.5392   86.2890    8.9950 C.ar    1  UNL1        0.0000
      9 C          60.0527   87.4833    8.2289 C.ar    1  UNL1        0.0000
     10 C          60.4345   88.8648    8.6716 C.ar    1  UNL1        0.0000
     11 C          61.3026   89.0519    9.8804 C.ar    1  UNL1        0.0000
     12 C          61.7890   87.8576   10.6465 C.ar    1  UNL1        0.0000
     13 C          62.6573   88.0447   11.8554 C.ar    1  UNL1        0.0001
     14 C          63.0390   89.4261   12.2980 C.ar    1  UNL1        0.0032
     15 O          63.6875   91.5762   15.1946 O.2     1  UNL1       -0.2866
     16 C          64.2889   90.9946   13.9495 C.2     1  UNL1        0.1956
     17 C          65.2719   91.7945   13.1472 C.2     1  UNL1        0.0421
     18 C          64.9464   92.1856   11.7361 C.2     1  UNL1        0.0048
     19 C          65.9295   92.9855   10.9338 C.ar    1  UNL1        0.0193
     20 C          67.1054   92.3070   10.2959 C.ar    1  UNL1        0.0031
     21 C          68.0884   93.1069    9.4936 C.ar    1  UNL1        0.0207
     22 C          67.8956   94.5853    9.3292 C.ar    1  UNL1        0.0989
     23 N          66.7198   95.2638    9.9670 N.ar    1  UNL1       -0.2423
     24 C          65.7367   94.4640   10.7693 C.ar    1  UNL1        0.0988
@<TRIPOS>BOND
     1    15    16    2
     2    16    17    1
     3    17    18    2
     4    18    19    1
     5    19    20   ar
     6    20    21   ar
     7    21    22   ar
     8    22    23   ar
     9    23    24   ar
    10    16     1    1
    11     1     2   ar
    12     2     3   ar
    13     3     4   ar
    14     4     5   ar
    15     5     6   ar
    16     6     7   ar
    17     7     8   ar
    18     8     9   ar
    19     9    10   ar
    20    10    11   ar
    21    11    12   ar
    22    12    13   ar
    23    13    14   ar
    24    24    19   ar
    25    14     1   ar
    26    13     4   ar
    27    12     7   ar
@<TRIPOS>MOLECULE
*****
 24 27 0 0 0
SMALL
GASTEIGER

@<TRIPOS>ATOM
      1 C          62.0540   87.2286   10.2810 C.ar    1  UNL1        0.0390
      2 C          62.4586   86.7673    8.9122 C.ar    1  UNL1        0.0032
      3 C          63.0231   85.3908    8.7211 C.ar    1  UNL1        0.0001
      4 C          63.1830   84.4756    9.8988 C.ar    1  UNL1        0.0000
      5 C          63.7476   83.0991    9.7077 C.ar    1  UNL1        0.0000
      6 C          63.9075   82.1839   10.8853 C.ar    1  UNL1        0.0000
      7 C          63.5030   82.6453   12.2541 C.ar    1  UNL1        0.0000
      8 C          63.6629   81.7301   13.4317 C.ar    1  UNL1        0.0000
      9 C          63.2584   82.1914   14.8004 C.ar    1  UNL1        0.0000
     10 C          62.6939   83.5679   14.9915 C.ar    1  UNL1        0.0000
     11 C          62.5339   84.4831   13.8139 C.ar    1  UNL1        0.0000
     12 C          62.9385   84.0218   12.4452 C.ar    1  UNL1        0.0000
     13 C          62.7785   84.9370   11.2675 C.ar    1  UNL1        0.0001
     14 C          62.2140   86.3135   11.4586 C.ar    1  UNL1        0.0032
     15 O          60.0045   88.8027   10.5497 O.2     1  UNL1       -0.2866
     16 C          61.4895   88.6052   10.4721 C.2     1  UNL1        0.1956
     17 C          62.4098   89.7841   10.5857 C.2     1  UNL1        0.0421
     18 C          63.1841   90.0122   11.8500 C.2     1  UNL1        0.0048
     19 C          64.1045   91.1912   11.9635 C.ar    1  UNL1        0.0193
     20 C          64.4484   91.9943   10.7442 C.ar    1  UNL1        0.0031
     21 C          65.3688   93.1732   10.8577 C.ar    1  UNL1        0.0207
     22 C          65.9452   93.5492   12.1906 C.ar    1  UNL1        0.0989
     23 N          65.6012   92.7461   13.4099 N.ar    1  UNL1       -0.2423
     24 C          64.6809   91.5671   13.2963 C.ar    1  UNL1        0.0988
@<TRIPOS>BOND
     1    15    16    2
     2    16    17    1
     3    17    18    2
     4    18    19    1
     5    19    20   ar
     6    20    21   ar
     7    21    22   ar
     8    22    23   ar
     9    23    24   ar
    10    16     1    1
    11     1     2   ar
    12     2     3   ar
    13     3     4   ar
    14     4     5   ar
    15     5     6   ar
    16     6     7   ar
    17     7     8   ar
    18     8     9   ar
    19     9    10   ar
    20    10    11   ar
    21    11    12   ar
    22    12    13   ar
    23    13    14   ar
    24    24    19   ar
    25    14     1   ar
    26    13     4   ar
    27    12     7   ar
@<TRIPOS>MOLECULE
*****
 24 27 0 0 0
SMALL
GASTEIGER

@<TRIPOS>ATOM
      1 C          63.4769   89.8574   12.6876 C.ar    1  UNL1        0.0390
      2 C          62.7060   90.0370   11.4134 C.ar    1  UNL1        0.0032
      3 C          62.1727   88.8395   10.6844 C.ar    1  UNL1        0.0001
      4 C          62.4102   87.4623   11.2296 C.ar    1  UNL1        0.0000
      5 C          61.8769   86.2648   10.5006 C.ar    1  UNL1        0.0000
      6 C          62.1143   84.8877   11.0458 C.ar    1  UNL1        0.0000
      7 C          62.8852   84.7082   12.3200 C.ar    1  UNL1        0.0000
      8 C          63.1227   83.3311   12.8652 C.ar    1  UNL1        0.0000
      9 C          63.8935   83.1516   14.1394 C.ar    1  UNL1        0.0000
     10 C          64.4268   84.3491   14.8684 C.ar    1  UNL1        0.0000
     11 C          64.1894   85.7262   14.3232 C.ar    1  UNL1        0.0000
     12 C          63.4185   85.9057   13.0490 C.ar    1  UNL1        0.0000
     13 C          63.1810   87.2828   12.5038 C.ar    1  UNL1        0.0001
     14 C          63.7143   88.4804   13.2328 C.ar    1  UNL1        0.0032
     15 O          63.5527   91.3468   14.8151 O.2     1  UNL1       -0.2866
     16 C          64.0102   91.0550   13.4166 C.2     1  UNL1        0.1956
     17 C          65.0010   91.9606   12.7472 C.2     1  UNL1        0.0421
     18 C          64.9663   92.1404   11.2584 C.2     1  UNL1        0.0048
     19 C          65.9571   93.0461   10.5891 C.ar    1  UNL1        0.0193
     20 C          67.1854   92.4710    9.9484 C.ar    1  UNL1        0.0031
     21 C          68.1761   93.3768    9.2790 C.ar    1  UNL1        0.0207
     22 C          67.9386   94.8576    9.2504 C.ar    1  UNL1        0.0989
     23 N          66.7103   95.4326    9.8911 N.ar    1  UNL1       -0.2423
     24 C          65.7195   94.5269   10.5604 C.ar    1  UNL1        0.0988
@<TRIPOS>BOND
     1    15    16    2
     2    16    17    1
     3    17    18    2
     4    18    19    1
     5    19    20   ar
     6    20    21   ar
     7    21    22   ar
     8    22    23   ar
     9    23    24   ar
    10    16     1    1
    11     1     2   ar
    12     2     3   ar
    13     3     4   ar
    14     4     5   ar
    15     5     6   ar
    16     6     7   ar
    17     7     8   ar
    18     8     9   ar
    19     9    10   ar
    20    10    11   ar
    21    11    12   ar
    22    12    13   ar
    23    13    14   ar
    24    24    19   ar
    25    14     1   ar
    26    13     4   ar
    27    12     7   ar
@<TRIPOS>MOLECULE
*****
 24 27 0 0 0
SMALL
GASTEIGER

@<TRIPOS>ATOM
      1 C          63.2829   89.5484   12.4052 C.ar    1  UNL1        0.0390
      2 C          63.9262   89.9518   13.6988 C.ar    1  UNL1        0.0032
      3 C          64.3676   88.9030   14.6761 C.ar    1  UNL1        0.0001
      4 C          64.1658   87.4506   14.3596 C.ar    1  UNL1        0.0000
      5 C          64.6073   86.4018   15.3369 C.ar    1  UNL1        0.0000
      6 C          64.4055   84.9495   15.0205 C.ar    1  UNL1        0.0000
      7 C          63.7622   84.5460   13.7268 C.ar    1  UNL1        0.0000
      8 C          63.5604   83.0937   13.4105 C.ar    1  UNL1        0.0000
      9 C          62.9172   82.6903   12.1169 C.ar    1  UNL1        0.0000
     10 C          62.4757   83.7392   11.1397 C.ar    1  UNL1        0.0000
     11 C          62.6775   85.1915   11.4560 C.ar    1  UNL1        0.0000
     12 C          63.3207   85.5949   12.7496 C.ar    1  UNL1        0.0000
     13 C          63.5226   87.0472   13.0660 C.ar    1  UNL1        0.0001
     14 C          63.0811   88.0961   12.0888 C.ar    1  UNL1        0.0032
     15 O          61.3792   90.8321   11.1894 O.2     1  UNL1       -0.2866
     16 C          62.8414   90.5972   11.4280 C.2     1  UNL1        0.1956
     17 C          63.8620   91.4112   10.6893 C.2     1  UNL1        0.0421
     18 C          64.8774   92.2109   11.4505 C.2     1  UNL1        0.0048
     19 C          65.8981   93.0249   10.7117 C.ar    1  UNL1        0.0193
     20 C          67.0889   92.3536   10.0943 C.ar    1  UNL1        0.0031
     21 C          68.1095   93.1675    9.3556 C.ar    1  UNL1        0.0207
     22 C          67.9393   94.6529    9.2343 C.ar    1  UNL1        0.0989
     23 N          66.7485   95.3243    9.8517 N.ar    1  UNL1       -0.2423
     24 C          65.7279   94.5103   10.5904 C.ar    1  UNL1        0.0988
@<TRIPOS>BOND
     1    15    16    2
     2    16    17    1
     3    17    18    2
     4    18    19    1
     5    19    20   ar
     6    20    21   ar
     7    21    22   ar
     8    22    23   ar
     9    23    24   ar
    10    16     1    1
    11     1     2   ar
    12     2     3   ar
    13     3     4   ar
    14     4     5   ar
    15     5     6   ar
    16     6     7   ar
    17     7     8   ar
    18     8     9   ar
    19     9    10   ar
    20    10    11   ar
    21    11    12   ar
    22    12    13   ar
    23    13    14   ar
    24    24    19   ar
    25    14     1   ar
    26    13     4   ar
    27    12     7   ar
@<TRIPOS>MOLECULE
*****
 24 27 0 0 0
SMALL
GASTEIGER

@<TRIPOS>ATOM
      1 C          63.7669   84.5127   12.8967 C.ar    1  UNL1        0.0390
      2 C          64.5533   83.4998   12.1184 C.ar    1  UNL1        0.0032
      3 C          64.3581   83.3765   10.6363 C.ar    1  UNL1        0.0001
      4 C          63.3766   84.2662    9.9325 C.ar    1  UNL1        0.0000
      5 C          63.1814   84.1429    8.4504 C.ar    1  UNL1        0.0000
      6 C          62.1999   85.0324    7.7466 C.ar    1  UNL1        0.0000
      7 C          61.4135   86.0454    8.5249 C.ar    1  UNL1        0.0000
      8 C          60.4321   86.9349    7.8212 C.ar    1  UNL1        0.0000
      9 C          59.6458   87.9478    8.5995 C.ar    1  UNL1        0.0000
     10 C          59.8410   88.0710   10.0816 C.ar    1  UNL1        0.0000
     11 C          60.8225   87.1815   10.7854 C.ar    1  UNL1        0.0000
     12 C          61.6087   86.1686   10.0071 C.ar    1  UNL1        0.0000
     13 C          62.5903   85.2790   10.7108 C.ar    1  UNL1        0.0001
     14 C          62.7855   85.4023   12.1930 C.ar    1  UNL1        0.0032
     15 O          64.2813   83.4199   15.1970 O.2     1  UNL1       -0.2866
     16 C          63.9621   84.6360   14.3789 C.2     1  UNL1        0.1956
     17 C          63.8382   85.9753   15.0428 C.2     1  UNL1        0.0421
     18 C          64.2355   87.2185   14.3036 C.2     1  UNL1        0.0048
     19 C          64.1115   88.5579   14.9677 C.ar    1  UNL1        0.0193
     20 C          63.3918   88.6816   16.2778 C.ar    1  UNL1        0.0031
     21 C          63.2678   90.0209   16.9418 C.ar    1  UNL1        0.0207
     22 C          63.8636   91.2364   16.2956 C.ar    1  UNL1        0.0989
     23 N          64.5834   91.1127   14.9855 N.ar    1  UNL1       -0.2423
     24 C          64.7073   89.7734   14.3215 C.ar    1  UNL1        0.0988
@<TRIPOS>BOND
     1    15    16    2
     2    16    17    1
     3    17    18    2
     4    18    19    1
     5    19    20   ar
     6    20    21   ar
     7    21    22   ar
     8    22    23   ar
     9    23    24   ar
    10    16     1    1
    11     1     2   ar
    12     2     3   ar
    13     3     4   ar
    14     4     5   ar
    15     5     6   ar
    16     6     7   ar
    17     7     8   ar
    18     8     9   ar
    19     9    10   ar
    20    10    11   ar
    21    11    12   ar
    22    12    13   ar
    23    13    14   ar
    24    24    19   ar
    25    14     1   ar
    26    13     4   ar
    27    12     7   ar
@<TRIPOS>MOLECULE
*****
 24 27 0 0 0
SMALL
GASTEIGER

@<TRIPOS>ATOM
      1 C          64.0513   89.3902   13.7389 C.ar    1  UNL1        0.0390
      2 C          64.4936   88.2274   14.5771 C.ar    1  UNL1        0.0032
      3 C          64.1223   86.8303   14.1769 C.ar    1  UNL1        0.0001
      4 C          63.3088   86.5959   12.9385 C.ar    1  UNL1        0.0000
      5 C          62.9376   85.1988   12.5383 C.ar    1  UNL1        0.0000
      6 C          62.1242   84.9644   11.3000 C.ar    1  UNL1        0.0000
      7 C          61.6820   86.1272   10.4619 C.ar    1  UNL1        0.0000
      8 C          60.8686   85.8928    9.2236 C.ar    1  UNL1        0.0000
      9 C          60.4264   87.0556    8.3855 C.ar    1  UNL1        0.0000
     10 C          60.7977   88.4527    8.7857 C.ar    1  UNL1        0.0000
     11 C          61.6111   88.6871   10.0240 C.ar    1  UNL1        0.0000
     12 C          62.0532   87.5243   10.8621 C.ar    1  UNL1        0.0000
     13 C          62.8667   87.7587   12.1004 C.ar    1  UNL1        0.0001
     14 C          63.2379   89.1558   12.5006 C.ar    1  UNL1        0.0032
     15 O          64.5313   91.1478   15.5911 O.2     1  UNL1       -0.2866
     16 C          64.4226   90.7874   14.1391 C.2     1  UNL1        0.1956
     17 C          64.6852   91.8241   13.0873 C.2     1  UNL1        0.0421
     18 C          66.0903   92.2666   12.8046 C.2     1  UNL1        0.0048
     19 C          66.3528   93.3033   11.7528 C.ar    1  UNL1        0.0193
     20 C          66.2064   94.7594   12.0819 C.ar    1  UNL1        0.0031
     21 C          66.4689   95.7961   11.0301 C.ar    1  UNL1        0.0207
     22 C          66.8779   95.3767    9.6492 C.ar    1  UNL1        0.0989
     23 N          67.0243   93.9206    9.3201 N.ar    1  UNL1       -0.2423
     24 C          66.7617   92.8839   10.3719 C.ar    1  UNL1        0.0988
@<TRIPOS>BOND
     1    15    16    2
     2    16    17    1
     3    17    18    2
     4    18    19    1
     5    19    20   ar
     6    20    21   ar
     7    21    22   ar
     8    22    23   ar
     9    23    24   ar
    10    16     1    1
    11     1     2   ar
    12     2     3   ar
    13     3     4   ar
    14     4     5   ar
    15     5     6   ar
    16     6     7   ar
    17     7     8   ar
    18     8     9   ar
    19     9    10   ar
    20    10    11   ar
    21    11    12   ar
    22    12    13   ar
    23    13    14   ar
    24    24    19   ar
    25    14     1   ar
    26    13     4   ar
    27    12     7   ar
@<TRIPOS>MOLECULE
*****
 24 27 0 0 0
SMALL
GASTEIGER

@<TRIPOS>ATOM
      1 C          62.4726   88.7247   11.1350 C.ar    1  UNL1        0.0390
      2 C          61.9405   88.1781    9.8433 C.ar    1  UNL1        0.0032
      3 C          61.8959   86.6958    9.6180 C.ar    1  UNL1        0.0001
      4 C          62.3833   85.7601   10.6842 C.ar    1  UNL1        0.0000
      5 C          62.3386   84.2778   10.4589 C.ar    1  UNL1        0.0000
      6 C          62.8260   83.3420   11.5250 C.ar    1  UNL1        0.0000
      7 C          63.3581   83.8886   12.8167 C.ar    1  UNL1        0.0000
      8 C          63.8455   82.9528   13.8829 C.ar    1  UNL1        0.0000
      9 C          64.3775   83.4994   15.1744 C.ar    1  UNL1        0.0000
     10 C          64.4222   84.9817   15.3998 C.ar    1  UNL1        0.0000
     11 C          63.9348   85.9174   14.3336 C.ar    1  UNL1        0.0000
     12 C          63.4028   85.3709   13.0421 C.ar    1  UNL1        0.0000
     13 C          62.9153   86.3066   11.9758 C.ar    1  UNL1        0.0001
     14 C          62.9600   87.7889   12.2012 C.ar    1  UNL1        0.0032
     15 O          61.6497   91.1166   10.5417 O.2     1  UNL1       -0.2866
     16 C          62.5173   90.2070   11.3604 C.2     1  UNL1        0.1956
     17 C          63.4294   90.7797   12.4043 C.2     1  UNL1        0.0421
     18 C          64.6228   91.5907   11.9943 C.2     1  UNL1        0.0048
     19 C          65.5350   92.1634   13.0384 C.ar    1  UNL1        0.0193
     20 C          65.8834   91.3568   14.2541 C.ar    1  UNL1        0.0031
     21 C          66.7955   91.9296   15.2980 C.ar    1  UNL1        0.0207
     22 C          67.3592   93.3089   15.1263 C.ar    1  UNL1        0.0989
     23 N          67.0109   94.1156   13.9107 N.ar    1  UNL1       -0.2423
     24 C          66.0987   93.5428   12.8667 C.ar    1  UNL1        0.0988
@<TRIPOS>BOND
     1    15    16    2
     2    16    17    1
     3    17    18    2
     4    18    19    1
     5    19    20   ar
     6    20    21   ar
     7    21    22   ar
     8    22    23   ar
     9    23    24   ar
    10    16     1    1
    11     1     2   ar
    12     2     3   ar
    13     3     4   ar
    14     4     5   ar
    15     5     6   ar
    16     6     7   ar
    17     7     8   ar
    18     8     9   ar
    19     9    10   ar
    20    10    11   ar
    21    11    12   ar
    22    12    13   ar
    23    13    14   ar
    24    24    19   ar
    25    14     1   ar
    26    13     4   ar
    27    12     7   ar
@<TRIPOS>MOLECULE
*****
 24 27 0 0 0
SMALL
GASTEIGER

@<TRIPOS>ATOM
      1 C          63.9516   87.2946   13.6863 C.ar    1  UNL1        0.0390
      2 C          64.2859   88.6974   14.0994 C.ar    1  UNL1        0.0032
      3 C          63.7523   89.8581   13.3132 C.ar    1  UNL1        0.0001
      4 C          62.8845   89.6160   12.1139 C.ar    1  UNL1        0.0000
      5 C          62.3510   90.7767   11.3277 C.ar    1  UNL1        0.0000
      6 C          61.4832   90.5347   10.1284 C.ar    1  UNL1        0.0000
      7 C          61.1489   89.1319    9.7153 C.ar    1  UNL1        0.0000
      8 C          60.2811   88.8899    8.5160 C.ar    1  UNL1        0.0000
      9 C          59.9469   87.4872    8.1029 C.ar    1  UNL1        0.0000
     10 C          60.4804   86.3265    8.8891 C.ar    1  UNL1        0.0000
     11 C          61.3482   86.5685   10.0884 C.ar    1  UNL1        0.0000
     12 C          61.6824   87.9712   10.5015 C.ar    1  UNL1        0.0000
     13 C          62.5503   88.2133   11.7008 C.ar    1  UNL1        0.0001
     14 C          63.0838   87.0526   12.4870 C.ar    1  UNL1        0.0032
     15 O          65.7846   86.2621   15.2108 O.2     1  UNL1       -0.2866
     16 C          64.4851   86.1339   14.4725 C.2     1  UNL1        0.1956
     17 C          63.7193   84.8451   14.5205 C.2     1  UNL1        0.0421
     18 C          63.8644   83.8447   13.4122 C.2     1  UNL1        0.0048
     19 C          63.0985   82.5559   13.4602 C.ar    1  UNL1        0.0193
     20 C          63.4850   81.4197   12.5604 C.ar    1  UNL1        0.0031
     21 C          62.7191   80.1310   12.6084 C.ar    1  UNL1        0.0207
     22 C          61.5666   79.9783   13.5563 C.ar    1  UNL1        0.0989
     23 N          61.1801   81.1144   14.4561 N.ar    1  UNL1       -0.2423
     24 C          61.9460   82.4032   14.4081 C.ar    1  UNL1        0.0988
@<TRIPOS>BOND
     1    15    16    2
     2    16    17    1
     3    17    18    2
     4    18    19    1
     5    19    20   ar
     6    20    21   ar
     7    21    22   ar
     8    22    23   ar
     9    23    24   ar
    10    16     1    1
    11     1     2   ar
    12     2     3   ar
    13     3     4   ar
    14     4     5   ar
    15     5     6   ar
    16     6     7   ar
    17     7     8   ar
    18     8     9   ar
    19     9    10   ar
    20    10    11   ar
    21    11    12   ar
    22    12    13   ar
    23    13    14   ar
    24    24    19   ar
    25    14     1   ar
    26    13     4   ar
    27    12     7   ar
@<TRIPOS>MOLECULE
*****
 24 27 0 0 0
SMALL
GASTEIGER

@<TRIPOS>ATOM
      1 C          61.1620   87.8654   10.0617 C.ar    1  UNL1        0.0390
      2 C          61.6311   89.1706   10.6332 C.ar    1  UNL1        0.0032
      3 C          62.5580   89.1831   11.8124 C.ar    1  UNL1        0.0001
      4 C          63.0159   87.8904   12.4201 C.ar    1  UNL1        0.0000
      5 C          63.9429   87.9029   13.5994 C.ar    1  UNL1        0.0000
      6 C          64.4008   86.6102   14.2071 C.ar    1  UNL1        0.0000
      7 C          63.9318   85.3050   13.6356 C.ar    1  UNL1        0.0000
      8 C          64.3897   84.0124   14.2434 C.ar    1  UNL1        0.0000
      9 C          63.9207   82.7073   13.6719 C.ar    1  UNL1        0.0000
     10 C          62.9938   82.6948   12.4926 C.ar    1  UNL1        0.0000
     11 C          62.5358   83.9874   11.8849 C.ar    1  UNL1        0.0000
     12 C          63.0049   85.2925   12.4564 C.ar    1  UNL1        0.0000
     13 C          62.5469   86.5852   11.8486 C.ar    1  UNL1        0.0001
     14 C          61.6200   86.5727   10.6694 C.ar    1  UNL1        0.0032
     15 O          59.3974   86.6410    8.5998 O.2     1  UNL1       -0.2866
     16 C          60.2351   87.8529    8.8824 C.2     1  UNL1        0.1956
     17 C          60.1458   89.0521    7.9859 C.2     1  UNL1        0.0421
     18 C          59.3424   88.9847    6.7210 C.2     1  UNL1        0.0048
     19 C          59.2531   90.1840    5.8244 C.ar    1  UNL1        0.0193
     20 C          60.4928   90.7373    5.1863 C.ar    1  UNL1        0.0031
     21 C          60.4035   91.9365    4.2898 C.ar    1  UNL1        0.0207
     22 C          59.0746   92.5825    4.0314 C.ar    1  UNL1        0.0989
     23 N          57.8350   92.0293    4.6695 N.ar    1  UNL1       -0.2423
     24 C          57.9243   90.8301    5.5660 C.ar    1  UNL1        0.0988
@<TRIPOS>BOND
     1    15    16    2
     2    16    17    1
     3    17    18    2
     4    18    19    1
     5    19    20   ar
     6    20    21   ar
     7    21    22   ar
     8    22    23   ar
     9    23    24   ar
    10    16     1    1
    11     1     2   ar
    12     2     3   ar
    13     3     4   ar
    14     4     5   ar
    15     5     6   ar
    16     6     7   ar
    17     7     8   ar
    18     8     9   ar
    19     9    10   ar
    20    10    11   ar
    21    11    12   ar
    22    12    13   ar
    23    13    14   ar
    24    24    19   ar
    25    14     1   ar
    26    13     4   ar
    27    12     7   ar
