@<TRIPOS>MOLECULE
*****
 54 60 0 0 0
SMALL
GASTEIGER

@<TRIPOS>ATOM
      1 C          63.0169   82.2828   12.5004 C.ar    1  UNL1        0.1090
      2 C          62.4085   80.9184   12.3660 C.ar    1  UNL1        0.0405
      3 C          62.7731   79.8356   13.3379 C.ar    1  UNL1        0.1596
      4 F          62.1647   78.4711   13.2036 F       1  UNL1       -0.2025
      5 C          63.7461   80.1173   14.4442 C.ar    1  UNL1        0.1316
      6 N          64.3546   81.4818   14.5786 N.ar    1  UNL1       -0.2073
      7 C          63.9900   82.5645   13.6067 C.ar    1  UNL1        0.2341
      8 N          62.0533   84.6482   12.0245 N.am    1  UNL1       -0.3024
      9 C          62.6523   83.3657   11.5284 C.2     1  UNL1        0.2504
     10 O          62.8868   83.1658   10.0604 O.2     1  UNL1       -0.2700
     11 H          61.8995   84.7794   12.9880 H       1  UNL1        0.1497
     12 C          60.9596   87.8967    9.1088 C.3     1  UNL1        0.0720
     13 C          60.4476   87.9499   10.5177 C.3     1  UNL1        0.0213
     14 C          60.8122   86.8671   11.4896 C.3     1  UNL1        0.0213
     15 C          61.6888   85.7311   11.0525 C.3     1  UNL1        0.0720
     16 C          62.2007   85.6778    9.6437 C.3     1  UNL1        0.0213
     17 C          61.8361   86.7606    8.6718 C.3     1  UNL1        0.0213
     18 C          59.3675   88.8414    7.2859 C.2     1  UNL1        0.2653
     19 O          58.5045   87.6204    7.4069 O.2     1  UNL1       -0.2684
     20 N          60.5950   88.9795    8.1368 N.am    1  UNL1       -0.3012
     21 H          61.1613   89.7808    8.0575 H       1  UNL1        0.1497
     22 C          59.7270   92.6971    3.6964 C.3     1  UNL1        0.0518
     23 C          59.1682   91.6965    4.6640 C.ar    1  UNL1        0.0577
     24 C          59.9638   90.7322    5.4931 C.ar    1  UNL1        0.0398
     25 C          59.0029   89.9242    6.3140 C.ar    1  UNL1        0.1551
     26 N          57.6135   90.3891    5.9923 N.ar    1  UNL1       -0.1649
     27 N          57.7156   91.4844    4.9726 N.ar    1  UNL1       -0.2527
     28 C          56.5670   92.2357    4.3677 C.3     1  UNL1        0.1533
     29 O          64.5984   83.9290   13.7410 O.3     1  UNL1       -0.4360
     30 C          64.0165   84.9178   14.7073 C.ar    1  UNL1        0.1472
     31 C          63.0375   84.4620   15.7484 C.ar    1  UNL1        0.0376
     32 C          62.4556   85.4508   16.7147 C.ar    1  UNL1        0.0031
     33 C          62.8528   86.8954   16.6398 C.ar    1  UNL1        0.0002
     34 C          63.8317   87.3511   15.5987 C.ar    1  UNL1        0.0030
     35 C          64.4136   86.3623   14.6325 C.ar    1  UNL1        0.0376
     36 C          64.2289   88.7957   15.5239 C.ar    1  UNL1        0.0001
     37 C          63.5618   89.8039   16.4120 C.ar    1  UNL1       -0.0003
     38 C          63.9589   91.2484   16.3372 C.ar    1  UNL1       -0.0042
     39 C          65.0230   91.6848   15.3743 C.ar    1  UNL1       -0.0208
     40 C          65.6901   90.6766   14.4862 C.ar    1  UNL1       -0.0042
     41 C          65.2930   89.2321   14.5610 C.ar    1  UNL1       -0.0003
     42 C          65.4202   93.1294   15.2994 C.3     1  UNL1        0.0437
     43 C          66.6451   93.5317   14.5328 C.3     1  UNL1        0.0768
     44 N          66.5115   94.1081   13.1544 N.3     1  UNL1       -0.2723
     45 C          66.4344   93.1975   11.9649 C.3     1  UNL1        0.0735
     46 C          66.3008   93.7740   10.5865 C.3     1  UNL1        0.0333
     47 C          66.2443   95.2610   10.3977 C.3     1  UNL1        0.0603
     48 C          66.3213   96.1715   11.5872 C.3     1  UNL1        0.0333
     49 C          66.4549   95.5951   12.9656 C.3     1  UNL1        0.0735
     50 N          66.1107   95.8374    9.0194 N.3     1  UNL1       -0.2739
     51 C          64.8548   96.3889    8.4123 C.3     1  UNL1        0.0721
     52 C          65.1774   96.8559    7.0238 C.3     1  UNL1        0.0188
     53 C          66.6328   96.5931    6.7728 C.3     1  UNL1        0.0188
     54 C          67.2095   95.9636    8.0062 C.3     1  UNL1        0.0721
@<TRIPOS>BOND
     1    22    23    1
     2    23    24   ar
     3    24    25   ar
     4    25    18    1
     5    18    19    2
     6    18    20   am
     7    12    20    1
     8    12    13    1
     9    13    14    1
    10    14    15    1
    11    15     8    1
    12     8     9   am
    13     9    10    2
    14     9     1    1
    15     1     2   ar
    16     2     3   ar
    17     3     4    1
    18     3     5   ar
    19     5     6   ar
    20     6     7   ar
    21     7    29    1
    22    29    30    1
    23    30    31   ar
    24    31    32   ar
    25    32    33   ar
    26    33    34   ar
    27    34    36    1
    28    36    37   ar
    29    37    38   ar
    30    38    39   ar
    31    39    42    1
    32    42    43    1
    33    43    44    1
    34    44    45    1
    35    45    46    1
    36    46    47    1
    37    47    50    1
    38    50    51    1
    39    51    52    1
    40    52    53    1
    41    53    54    1
    42    47    48    1
    43    48    49    1
    44    39    40   ar
    45    40    41   ar
    46    34    35   ar
    47    15    16    1
    48    16    17    1
    49    25    26   ar
    50    26    27   ar
    51    27    28    1
    52    27    23   ar
    53    17    12    1
    54     7     1   ar
    55    35    30   ar
    56    41    36   ar
    57    49    44    1
    58    54    50    1
    59    20    21    1
    60     8    11    1
@<TRIPOS>MOLECULE
*****
 54 60 0 0 0
SMALL
GASTEIGER

@<TRIPOS>ATOM
      1 C          59.7560   89.5204    8.2653 C.ar    1  UNL1        0.1090
      2 C          59.6805   90.5128    9.3875 C.ar    1  UNL1        0.0405
      3 C          59.7001   90.0387   10.8104 C.ar    1  UNL1        0.1596
      4 F          59.6247   91.0312   11.9327 F       1  UNL1       -0.2025
      5 C          59.7951   88.5723   11.1112 C.ar    1  UNL1        0.1316
      6 N          59.8705   87.5798    9.9890 N.ar    1  UNL1       -0.2073
      7 C          59.8509   88.0539    8.5660 C.ar    1  UNL1        0.2341
      8 N          60.8143   90.9096    6.3417 N.am    1  UNL1       -0.3024
      9 C          59.7364   89.9944    6.8422 C.2     1  UNL1        0.2504
     10 O          58.6389   89.5532    5.9198 O.2     1  UNL1       -0.2700
     11 H          61.5346   91.1991    6.9471 H       1  UNL1        0.1497
     12 C          60.7556   92.3317    2.0727 C.3     1  UNL1        0.0720
     13 C          59.5687   92.5689    2.9586 C.3     1  UNL1        0.0213
     14 C          59.5882   92.0949    4.3816 C.3     1  UNL1        0.0213
     15 C          60.7948   91.3836    4.9187 C.3     1  UNL1        0.0720
     16 C          61.9817   91.1464    4.0327 C.3     1  UNL1        0.0213
     17 C          61.9621   91.6204    2.6098 C.3     1  UNL1        0.0213
     18 C          61.6369   93.9252    0.2197 C.2     1  UNL1        0.2653
     19 O          62.5574   94.5708    1.2126 O.2     1  UNL1       -0.2684
     20 N          60.7360   92.8057    0.6497 N.am    1  UNL1       -0.3012
     21 H          60.1319   92.3820   -0.0020 H       1  UNL1        0.1497
     22 C          60.2278   94.6284   -4.8203 C.3     1  UNL1        0.0518
     23 C          60.9697   94.7224   -3.5200 C.ar    1  UNL1        0.0577
     24 C          60.6066   94.0205   -2.2450 C.ar    1  UNL1        0.0398
     25 C          61.6174   94.3993   -1.2034 C.ar    1  UNL1        0.1551
     26 N          62.6051   95.3352   -1.8346 N.ar    1  UNL1       -0.1649
     27 N          62.2048   95.5349   -3.2663 N.ar    1  UNL1       -0.2527
     28 C          62.9150   96.3959   -4.2684 C.3     1  UNL1        0.1533
     29 O          59.9264   87.0615    7.4437 O.3     1  UNL1       -0.4360
     30 C          60.9720   85.9861    7.4625 C.ar    1  UNL1        0.1472
     31 C          61.5441   85.4738    6.1740 C.ar    1  UNL1        0.0376
     32 C          62.5897   84.3984    6.1927 C.ar    1  UNL1        0.0031
     33 C          63.0632   83.8355    7.5000 C.ar    1  UNL1        0.0002
     34 C          62.4911   84.3479    8.7885 C.ar    1  UNL1        0.0030
     35 C          61.4455   85.4232    8.7697 C.ar    1  UNL1        0.0376
     36 C          62.9647   83.7849   10.0958 C.ar    1  UNL1        0.0001
     37 C          64.1265   82.8367   10.1272 C.ar    1  UNL1       -0.0003
     38 C          64.6000   82.2738   11.4344 C.ar    1  UNL1       -0.0042
     39 C          63.9117   82.6591   12.7102 C.ar    1  UNL1       -0.0208
     40 C          62.7498   83.6073   12.6788 C.ar    1  UNL1       -0.0042
     41 C          62.2763   84.1702   11.3716 C.ar    1  UNL1       -0.0003
     42 C          64.3852   82.0961   14.0175 C.3     1  UNL1        0.0437
     43 C          64.0199   82.7766   15.3034 C.3     1  UNL1        0.0768
     44 N          63.9876   84.2744   15.3765 N.3     1  UNL1       -0.2723
     45 C          64.9945   85.0843   14.6148 C.3     1  UNL1        0.0735
     46 C          64.9622   86.5823   14.6879 C.3     1  UNL1        0.0333
     47 C          63.9231   87.2702   15.5227 C.3     1  UNL1        0.0603
     48 C          62.9162   86.4602   16.2844 C.3     1  UNL1        0.0333
     49 C          62.9485   84.9624   16.2113 C.3     1  UNL1        0.0735
     50 N          63.8909   88.7680   15.5958 N.3     1  UNL1       -0.2739
     51 C          64.5247   89.7123   14.6178 C.3     1  UNL1        0.0721
     52 C          64.2447   91.1124   15.0773 C.3     1  UNL1        0.0188
     53 C          63.4378   91.0335   16.3394 C.3     1  UNL1        0.0188
     54 C          63.2191   89.5846   16.6598 C.3     1  UNL1        0.0721
@<TRIPOS>BOND
     1    22    23    1
     2    23    24   ar
     3    24    25   ar
     4    25    18    1
     5    18    19    2
     6    18    20   am
     7    12    20    1
     8    12    13    1
     9    13    14    1
    10    14    15    1
    11    15     8    1
    12     8     9   am
    13     9    10    2
    14     9     1    1
    15     1     2   ar
    16     2     3   ar
    17     3     4    1
    18     3     5   ar
    19     5     6   ar
    20     6     7   ar
    21     7    29    1
    22    29    30    1
    23    30    31   ar
    24    31    32   ar
    25    32    33   ar
    26    33    34   ar
    27    34    36    1
    28    36    37   ar
    29    37    38   ar
    30    38    39   ar
    31    39    42    1
    32    42    43    1
    33    43    44    1
    34    44    45    1
    35    45    46    1
    36    46    47    1
    37    47    50    1
    38    50    51    1
    39    51    52    1
    40    52    53    1
    41    53    54    1
    42    47    48    1
    43    48    49    1
    44    39    40   ar
    45    40    41   ar
    46    34    35   ar
    47    15    16    1
    48    16    17    1
    49    25    26   ar
    50    26    27   ar
    51    27    28    1
    52    27    23   ar
    53    17    12    1
    54     7     1   ar
    55    35    30   ar
    56    41    36   ar
    57    49    44    1
    58    54    50    1
    59    20    21    1
    60     8    11    1
