@<TRIPOS>MOLECULE
*****
 33 37 0 0 0
SMALL
GASTEIGER

@<TRIPOS>ATOM
      1 N          64.4817   91.2227   14.4539 N.ar    1  UNL1       -0.2954
      2 C          64.4597   91.3013   12.9561 C.ar    1  UNL1        0.2014
      3 N          65.6401   92.1162   12.5173 N.ar    1  UNL1       -0.2136
      4 C          66.3917   92.5412   13.7439 C.ar    1  UNL1        0.0999
      5 C          67.6355   93.3597   13.9256 C.ar    1  UNL1        0.0207
      6 C          68.1633   93.6260   15.3041 C.ar    1  UNL1        0.0016
      7 C          67.4474   93.0738   16.5010 C.ar    1  UNL1        0.0016
      8 C          66.2036   92.2553   16.3193 C.ar    1  UNL1        0.0188
      9 C          65.6758   91.9890   14.9408 C.ar    1  UNL1        0.0801
     10 N          63.4368   90.6750   12.0553 N.pl3   1  UNL1       -0.2794
     11 C          62.2910   89.9053   12.6425 C.3     1  UNL1        0.0949
     12 C          61.2682   89.2790   11.7417 C.3     1  UNL1        0.0375
     13 C          61.3911   89.4223   10.2537 C.3     1  UNL1        0.0610
     14 C          62.5368   90.1919    9.6665 C.3     1  UNL1        0.0375
     15 C          63.5597   90.8182   10.5673 C.3     1  UNL1        0.0949
     16 N          60.3682   88.7960    9.3529 N.3     1  UNL1       -0.2727
     17 C          59.6523   89.6332    8.3348 C.3     1  UNL1        0.0896
     18 C          60.0612   87.3325    9.4702 C.3     1  UNL1        0.0722
     19 C          61.1787   86.3388    9.5882 C.3     1  UNL1        0.0210
     20 C          61.9649   85.9464    8.3726 C.3     1  UNL1        0.0335
     21 C          63.0824   84.9528    8.4906 C.3     1  UNL1        0.1422
     22 O          63.4137   84.3516    9.8243 O.3     1  UNL1       -0.3538
     23 C          62.6275   84.7441   11.0401 C.3     1  UNL1        0.1422
     24 C          61.5100   85.7377   10.9220 C.3     1  UNL1        0.0335
     25 C          63.4848   90.5040   15.3139 C.3     1  UNL1        0.1354
     26 C          63.8647   86.0687   15.9723 C.ar    1  UNL1        0.1387
     27 C          64.4914   86.7043   14.7667 C.ar    1  UNL1        0.0366
     28 C          64.3647   88.1827   14.5473 C.ar    1  UNL1        0.0007
     29 C          63.6114   89.0256   15.5333 C.ar    1  UNL1        0.0007
     30 C          62.9848   88.3899   16.7389 C.ar    1  UNL1        0.0007
     31 C          63.1115   86.9115   16.9583 C.ar    1  UNL1        0.0366
     32 C          63.9281   83.6505   15.0242 C.3     1  UNL1        0.2525
     33 O          63.9914   84.5902   16.1918 O.3     1  UNL1       -0.4714
@<TRIPOS>BOND
     1    32    33    1
     2    33    26    1
     3    26    27   ar
     4    27    28   ar
     5    28    29   ar
     6    29    25    1
     7    25     1    1
     8     1     2   ar
     9     2    10    1
    10    10    11    1
    11    11    12    1
    12    12    13    1
    13    13    16    1
    14    16    17    1
    15    16    18    1
    16    18    19    1
    17    19    20    1
    18    20    21    1
    19    21    22    1
    20    22    23    1
    21    23    24    1
    22    13    14    1
    23    14    15    1
    24     2     3   ar
    25     3     4   ar
    26     4     5   ar
    27     5     6   ar
    28     6     7   ar
    29     7     8   ar
    30     8     9   ar
    31    29    30   ar
    32    30    31   ar
    33    31    26   ar
    34     9     1   ar
    35    15    10    1
    36     9     4   ar
    37    24    19    1
@<TRIPOS>MOLECULE
*****
 33 37 0 0 0
SMALL
GASTEIGER

@<TRIPOS>ATOM
      1 N          66.3641   91.8601   12.7256 N.ar    1  UNL1       -0.2954
      2 C          65.0441   91.3189   13.1893 C.ar    1  UNL1        0.2014
      3 N          64.9555   91.5215   14.6728 N.ar    1  UNL1       -0.2136
      4 C          66.2206   92.1879   15.1261 C.ar    1  UNL1        0.0999
      5 C          66.6922   92.6312   16.4792 C.ar    1  UNL1        0.0207
      6 C          68.0345   93.2838   16.6289 C.ar    1  UNL1        0.0016
      7 C          68.9051   93.4930   15.4254 C.ar    1  UNL1        0.0016
      8 C          68.4334   93.0497   14.0723 C.ar    1  UNL1        0.0188
      9 C          67.0911   92.3972   13.9227 C.ar    1  UNL1        0.0801
     10 N          63.9968   90.6861   12.3216 N.pl3   1  UNL1       -0.2794
     11 C          63.6253   91.3178   11.0128 C.3     1  UNL1        0.0949
     12 C          62.5780   90.6850   10.1452 C.3     1  UNL1        0.0375
     13 C          61.9022   89.4207   10.5864 C.3     1  UNL1        0.0610
     14 C          62.2737   88.7891   11.8952 C.3     1  UNL1        0.0375
     15 C          63.3210   89.4218   12.7628 C.3     1  UNL1        0.0949
     16 N          60.8549   88.7880    9.7187 N.3     1  UNL1       -0.2727
     17 C          60.2034   89.5846    8.6275 C.3     1  UNL1        0.0896
     18 C          60.4590   87.3586    9.9424 C.3     1  UNL1        0.0722
     19 C          61.4929   86.2742    9.8720 C.3     1  UNL1        0.0210
     20 C          62.1808   85.9770    8.5726 C.3     1  UNL1        0.0335
     21 C          63.2147   84.8925    8.5021 C.3     1  UNL1        0.1422
     22 O          63.5608   84.1053    9.7311 O.3     1  UNL1       -0.3538
     23 C          62.8729   84.4025   11.0306 C.3     1  UNL1        0.1422
     24 C          61.8390   85.4869   11.1010 C.3     1  UNL1        0.0335
     25 C          66.8684   91.8635   11.3130 C.3     1  UNL1        0.1354
     26 C          66.5644   95.6003    8.8243 C.ar    1  UNL1        0.1387
     27 C          67.5423   94.5267    8.4488 C.ar    1  UNL1        0.0366
     28 C          67.6436   93.2811    9.2784 C.ar    1  UNL1        0.0007
     29 C          66.7670   93.1091   10.4835 C.ar    1  UNL1        0.0007
     30 C          65.7891   94.1828   10.8588 C.ar    1  UNL1        0.0007
     31 C          65.6878   95.4284   10.0292 C.ar    1  UNL1        0.0366
     32 C          65.6378   96.8477    6.7420 C.3     1  UNL1        0.2525
     33 O          66.4631   96.8459    7.9947 O.3     1  UNL1       -0.4714
@<TRIPOS>BOND
     1    32    33    1
     2    33    26    1
     3    26    27   ar
     4    27    28   ar
     5    28    29   ar
     6    29    25    1
     7    25     1    1
     8     1     2   ar
     9     2    10    1
    10    10    11    1
    11    11    12    1
    12    12    13    1
    13    13    16    1
    14    16    17    1
    15    16    18    1
    16    18    19    1
    17    19    20    1
    18    20    21    1
    19    21    22    1
    20    22    23    1
    21    23    24    1
    22    13    14    1
    23    14    15    1
    24     2     3   ar
    25     3     4   ar
    26     4     5   ar
    27     5     6   ar
    28     6     7   ar
    29     7     8   ar
    30     8     9   ar
    31    29    30   ar
    32    30    31   ar
    33    31    26   ar
    34     9     1   ar
    35    15    10    1
    36     9     4   ar
    37    24    19    1
@<TRIPOS>MOLECULE
*****
 33 37 0 0 0
SMALL
GASTEIGER

@<TRIPOS>ATOM
      1 N          62.2821   87.2606   10.4014 N.ar    1  UNL1       -0.2954
      2 C          62.0328   88.6673   10.8587 C.ar    1  UNL1        0.2014
      3 N          60.8433   89.1935   10.1117 N.ar    1  UNL1       -0.2136
      4 C          60.3574   88.1121    9.1928 C.ar    1  UNL1        0.0999
      5 C          59.2201   88.0609    8.2161 C.ar    1  UNL1        0.0207
      6 C          58.9720   86.8150    7.4185 C.ar    1  UNL1        0.0016
      7 C          59.8613   85.6203    7.5976 C.ar    1  UNL1        0.0016
      8 C          60.9986   85.6716    8.5742 C.ar    1  UNL1        0.0188
      9 C          61.2466   86.9175    9.3718 C.ar    1  UNL1        0.0801
     10 N          62.8327   89.4162   11.8831 N.pl3   1  UNL1       -0.2794
     11 C          63.0223   90.8982   11.7498 C.3     1  UNL1        0.0949
     12 C          63.8221   91.6471   12.7742 C.3     1  UNL1        0.0375
     13 C          64.4324   90.9140   13.9319 C.3     1  UNL1        0.0610
     14 C          64.2428   89.4321   14.0651 C.3     1  UNL1        0.0375
     15 C          63.4430   88.6831   13.0407 C.3     1  UNL1        0.0949
     16 N          65.2322   91.6629   14.9562 N.3     1  UNL1       -0.2727
     17 C          64.6833   91.8615   16.3379 C.3     1  UNL1        0.0896
     18 C          66.5811   92.2133   14.5989 C.3     1  UNL1        0.0722
     19 C          66.8422   92.7155   13.2098 C.3     1  UNL1        0.0210
     20 C          66.2986   94.0452   12.7784 C.3     1  UNL1        0.0335
     21 C          66.5598   94.5474   11.3893 C.3     1  UNL1        0.1422
     22 O          67.3646   93.7197   10.4316 O.3     1  UNL1       -0.3538
     23 C          67.9082   92.3899   10.8629 C.3     1  UNL1        0.1422
     24 C          67.6471   91.8877   12.2520 C.3     1  UNL1        0.0335
     25 C          63.3750   86.3558   10.8882 C.3     1  UNL1        0.1354
     26 C          62.3548   82.6632   13.2491 C.ar    1  UNL1        0.1387
     27 C          62.6380   82.5595   11.7797 C.ar    1  UNL1        0.0366
     28 C          62.9780   83.7904   10.9928 C.ar    1  UNL1        0.0007
     29 C          63.0349   85.1250   11.6752 C.ar    1  UNL1        0.0007
     30 C          62.7518   85.2287   13.1446 C.ar    1  UNL1        0.0007
     31 C          62.4118   83.9978   13.9315 C.ar    1  UNL1        0.0366
     32 C          62.2568   80.0744   13.4463 C.3     1  UNL1        0.2525
     33 O          62.0148   81.4323   14.0361 O.3     1  UNL1       -0.4714
@<TRIPOS>BOND
     1    32    33    1
     2    33    26    1
     3    26    27   ar
     4    27    28   ar
     5    28    29   ar
     6    29    25    1
     7    25     1    1
     8     1     2   ar
     9     2    10    1
    10    10    11    1
    11    11    12    1
    12    12    13    1
    13    13    16    1
    14    16    17    1
    15    16    18    1
    16    18    19    1
    17    19    20    1
    18    20    21    1
    19    21    22    1
    20    22    23    1
    21    23    24    1
    22    13    14    1
    23    14    15    1
    24     2     3   ar
    25     3     4   ar
    26     4     5   ar
    27     5     6   ar
    28     6     7   ar
    29     7     8   ar
    30     8     9   ar
    31    29    30   ar
    32    30    31   ar
    33    31    26   ar
    34     9     1   ar
    35    15    10    1
    36     9     4   ar
    37    24    19    1
@<TRIPOS>MOLECULE
*****
 33 37 0 0 0
SMALL
GASTEIGER

@<TRIPOS>ATOM
      1 N          62.2025   87.4809   10.4641 N.ar    1  UNL1       -0.2954
      2 C          61.8777   88.8778   10.9035 C.ar    1  UNL1        0.2014
      3 N          60.6953   89.3501   10.1105 N.ar    1  UNL1       -0.2136
      4 C          60.2893   88.2450    9.1810 C.ar    1  UNL1        0.0999
      5 C          59.1917   88.1414    8.1639 C.ar    1  UNL1        0.0207
      6 C          59.0256   86.8826    7.3653 C.ar    1  UNL1        0.0016
      7 C          59.9571   85.7274    7.5838 C.ar    1  UNL1        0.0016
      8 C          61.0547   85.8310    8.6009 C.ar    1  UNL1        0.0188
      9 C          61.2208   87.0898    9.3995 C.ar    1  UNL1        0.0801
     10 N          62.6073   89.6644   11.9518 N.pl3   1  UNL1       -0.2794
     11 C          62.4989   89.2714   13.3953 C.3     1  UNL1        0.0949
     12 C          63.2285   90.0580   14.4436 C.3     1  UNL1        0.0375
     13 C          64.0665   91.2376   14.0484 C.3     1  UNL1        0.0610
     14 C          64.1749   91.6306   12.6049 C.3     1  UNL1        0.0375
     15 C          63.4454   90.8440   11.5566 C.3     1  UNL1        0.0949
     16 N          64.7961   92.0242   15.0968 N.3     1  UNL1       -0.2727
     17 C          64.5759   91.7225   16.5495 C.3     1  UNL1        0.0896
     18 C          65.7458   93.1125   14.6924 C.3     1  UNL1        0.0722
     19 C          67.1805   92.7857   14.4005 C.3     1  UNL1        0.0210
     20 C          67.5436   92.0677   13.1347 C.3     1  UNL1        0.0335
     21 C          68.9782   91.7410   12.8428 C.3     1  UNL1        0.1422
     22 O          70.0497   92.1323   13.8169 O.3     1  UNL1       -0.3538
     23 C          69.6865   92.8504   15.0828 C.3     1  UNL1        0.1422
     24 C          68.2519   93.1771   15.3746 C.3     1  UNL1        0.0335
     25 C          63.3138   86.6253   10.9958 C.3     1  UNL1        0.1354
     26 C          62.3639   82.9079   13.3470 C.ar    1  UNL1        0.1387
     27 C          62.4802   84.2291   14.0476 C.ar    1  UNL1        0.0366
     28 C          62.7968   85.4682   13.2638 C.ar    1  UNL1        0.0007
     29 C          62.9972   85.3862   11.7795 C.ar    1  UNL1        0.0007
     30 C          62.8809   84.0649   11.0790 C.ar    1  UNL1        0.0007
     31 C          62.5643   82.8258   11.8628 C.ar    1  UNL1        0.0366
     32 C          62.6537   80.3552   13.7346 C.3     1  UNL1        0.2525
     33 O          62.0473   81.6688   14.1308 O.3     1  UNL1       -0.4714
@<TRIPOS>BOND
     1    32    33    1
     2    33    26    1
     3    26    27   ar
     4    27    28   ar
     5    28    29   ar
     6    29    25    1
     7    25     1    1
     8     1     2   ar
     9     2    10    1
    10    10    11    1
    11    11    12    1
    12    12    13    1
    13    13    16    1
    14    16    17    1
    15    16    18    1
    16    18    19    1
    17    19    20    1
    18    20    21    1
    19    21    22    1
    20    22    23    1
    21    23    24    1
    22    13    14    1
    23    14    15    1
    24     2     3   ar
    25     3     4   ar
    26     4     5   ar
    27     5     6   ar
    28     6     7   ar
    29     7     8   ar
    30     8     9   ar
    31    29    30   ar
    32    30    31   ar
    33    31    26   ar
    34     9     1   ar
    35    15    10    1
    36     9     4   ar
    37    24    19    1
@<TRIPOS>MOLECULE
*****
 33 37 0 0 0
SMALL
GASTEIGER

@<TRIPOS>ATOM
      1 N          64.0135   91.3123   12.4272 N.ar    1  UNL1       -0.2954
      2 C          64.7871   90.6657   13.5378 C.ar    1  UNL1        0.2014
      3 N          66.1706   91.2452   13.5375 N.ar    1  UNL1       -0.2136
      4 C          66.2520   92.2500   12.4267 C.ar    1  UNL1        0.0999
      5 C          67.3679   93.1326   11.9515 C.ar    1  UNL1        0.0207
      6 C          67.1505   94.0566   10.7901 C.ar    1  UNL1        0.0016
      7 C          65.8173   94.0980   10.1039 C.ar    1  UNL1        0.0016
      8 C          64.7015   93.2155   10.5791 C.ar    1  UNL1        0.0188
      9 C          64.9188   92.2915   11.7405 C.ar    1  UNL1        0.0801
     10 N          64.2683   89.6226   14.4827 N.pl3   1  UNL1       -0.2794
     11 C          64.6288   88.1808   14.2798 C.3     1  UNL1        0.0949
     12 C          64.1101   87.1378   15.2247 C.3     1  UNL1        0.0375
     13 C          63.2307   87.5365   16.3726 C.3     1  UNL1        0.0610
     14 C          62.8702   88.9783   16.5756 C.3     1  UNL1        0.0375
     15 C          63.3890   90.0213   15.6306 C.3     1  UNL1        0.0949
     16 N          62.7119   86.4935   17.3176 N.3     1  UNL1       -0.2727
     17 C          62.7489   86.7370   18.7972 C.3     1  UNL1        0.0896
     18 C          62.1562   85.2069   16.7829 C.3     1  UNL1        0.0722
     19 C          62.7740   84.5677   15.5748 C.3     1  UNL1        0.0210
     20 C          64.1640   84.0089   15.6501 C.3     1  UNL1        0.0335
     21 C          64.7819   83.3697   14.4419 C.3     1  UNL1        0.1422
     22 O          64.0098   83.2891   13.1585 O.3     1  UNL1       -0.3538
     23 C          62.6197   83.8479   13.0831 C.3     1  UNL1        0.1422
     24 C          62.0018   84.4872   14.2913 C.3     1  UNL1        0.0335
     25 C          62.5852   91.0294   12.0665 C.3     1  UNL1        0.1354
     26 C          61.5590   87.3913    9.6250 C.ar    1  UNL1        0.1387
     27 C          61.0539   88.7409    9.2086 C.ar    1  UNL1        0.0366
     28 C          61.3960   89.9536   10.0224 C.ar    1  UNL1        0.0007
     29 C          62.2432   89.8167   11.2528 C.ar    1  UNL1        0.0007
     30 C          62.7483   88.4671   11.6691 C.ar    1  UNL1        0.0007
     31 C          62.4062   87.2544   10.8552 C.ar    1  UNL1        0.0366
     32 C          59.9977   86.1813    7.9373 C.3     1  UNL1        0.2525
     33 O          61.2169   86.1786    8.8111 O.3     1  UNL1       -0.4714
@<TRIPOS>BOND
     1    32    33    1
     2    33    26    1
     3    26    27   ar
     4    27    28   ar
     5    28    29   ar
     6    29    25    1
     7    25     1    1
     8     1     2   ar
     9     2    10    1
    10    10    11    1
    11    11    12    1
    12    12    13    1
    13    13    16    1
    14    16    17    1
    15    16    18    1
    16    18    19    1
    17    19    20    1
    18    20    21    1
    19    21    22    1
    20    22    23    1
    21    23    24    1
    22    13    14    1
    23    14    15    1
    24     2     3   ar
    25     3     4   ar
    26     4     5   ar
    27     5     6   ar
    28     6     7   ar
    29     7     8   ar
    30     8     9   ar
    31    29    30   ar
    32    30    31   ar
    33    31    26   ar
    34     9     1   ar
    35    15    10    1
    36     9     4   ar
    37    24    19    1
@<TRIPOS>MOLECULE
*****
 33 37 0 0 0
SMALL
GASTEIGER

@<TRIPOS>ATOM
      1 N          61.0656   94.2179   -0.3317 N.ar    1  UNL1       -0.2954
      2 C          59.6801   93.8558    0.1148 C.ar    1  UNL1        0.2014
      3 N          59.7975   92.9928    1.3360 N.ar    1  UNL1       -0.2136
      4 C          61.2554   92.8214    1.6442 C.ar    1  UNL1        0.0999
      5 C          61.9706   92.0738    2.7303 C.ar    1  UNL1        0.0207
      6 C          63.4695   92.0833    2.7856 C.ar    1  UNL1        0.0016
      7 C          64.2533   92.8405    1.7548 C.ar    1  UNL1        0.0016
      8 C          63.5381   93.5881    0.6688 C.ar    1  UNL1        0.0188
      9 C          62.0392   93.5786    0.6135 C.ar    1  UNL1        0.0801
     10 N          58.4018   94.2820   -0.5442 N.pl3   1  UNL1       -0.2794
     11 C          58.1164   95.7394   -0.7552 C.3     1  UNL1        0.0949
     12 C          56.8380   96.1655   -1.4141 C.3     1  UNL1        0.0375
     13 C          55.8451   95.1344   -1.8621 C.3     1  UNL1        0.0610
     14 C          56.1305   93.6770   -1.6511 C.3     1  UNL1        0.0375
     15 C          57.4089   93.2508   -0.9921 C.3     1  UNL1        0.0949
     16 N          54.5668   95.5605   -2.5211 N.3     1  UNL1       -0.2727
     17 C          53.3152   95.7047   -1.7071 C.3     1  UNL1        0.0896
     18 C          54.5400   95.8425   -3.9940 C.3     1  UNL1        0.0722
     19 C          55.6854   95.4109   -4.8612 C.3     1  UNL1        0.0210
     20 C          56.7870   96.3764   -5.1841 C.3     1  UNL1        0.0335
     21 C          57.9323   95.9448   -6.0512 C.3     1  UNL1        0.1422
     22 O          57.9760   94.5478   -6.5955 O.3     1  UNL1       -0.3538
     23 C          56.8744   93.5822   -6.2727 C.3     1  UNL1        0.1422
     24 C          55.7290   94.0138   -5.4055 C.3     1  UNL1        0.0335
     25 C          61.4160   95.0697   -1.5156 C.3     1  UNL1        0.1354
     26 C          64.4846   93.6457   -4.4830 C.ar    1  UNL1        0.1387
     27 C          64.5405   95.0514   -3.9625 C.ar    1  UNL1        0.0366
     28 C          63.5176   95.5260   -2.9734 C.ar    1  UNL1        0.0007
     29 C          62.4388   94.5950   -2.5047 C.ar    1  UNL1        0.0007
     30 C          62.3830   93.1894   -3.0253 C.ar    1  UNL1        0.0007
     31 C          63.4059   92.7147   -4.0144 C.ar    1  UNL1        0.0366
     32 C          65.2193   91.9787   -6.3355 C.3     1  UNL1        0.2525
     33 O          65.5075   93.1711   -5.4721 O.3     1  UNL1       -0.4714
@<TRIPOS>BOND
     1    32    33    1
     2    33    26    1
     3    26    27   ar
     4    27    28   ar
     5    28    29   ar
     6    29    25    1
     7    25     1    1
     8     1     2   ar
     9     2    10    1
    10    10    11    1
    11    11    12    1
    12    12    13    1
    13    13    16    1
    14    16    17    1
    15    16    18    1
    16    18    19    1
    17    19    20    1
    18    20    21    1
    19    21    22    1
    20    22    23    1
    21    23    24    1
    22    13    14    1
    23    14    15    1
    24     2     3   ar
    25     3     4   ar
    26     4     5   ar
    27     5     6   ar
    28     6     7   ar
    29     7     8   ar
    30     8     9   ar
    31    29    30   ar
    32    30    31   ar
    33    31    26   ar
    34     9     1   ar
    35    15    10    1
    36     9     4   ar
    37    24    19    1
