@<TRIPOS>MOLECULE
*****
 30 34 0 0 0
SMALL
GASTEIGER

@<TRIPOS>ATOM
      1 C          65.4539   91.6856   12.7614 C.ar    1  UNL1        0.1543
      2 C          65.8845   92.4699   11.5574 C.ar    1  UNL1        0.0384
      3 C          64.9847   92.5610   10.3606 C.ar    1  UNL1        0.0032
      4 C          63.6545   91.8679   10.3678 C.ar    1  UNL1        0.0018
      5 C          63.2240   91.0836   11.5718 C.ar    1  UNL1        0.0246
      6 C          61.9792   90.3006   11.8670 C.ar    1  UNL1        0.0722
      7 C          62.1095   89.7254   13.2463 C.ar    1  UNL1        0.0805
      8 N          63.4349   90.1531   13.8034 N.ar    1  UNL1       -0.3236
      9 C          64.1237   90.9925   12.7686 C.ar    1  UNL1        0.0945
     10 C          60.8094   90.1237   10.9449 C.2     1  UNL1        0.2506
     11 O          59.6570   91.0821   11.0028 O.2     1  UNL1       -0.2699
     12 N          60.7919   88.9882    9.9648 N.am    1  UNL1       -0.2732
     13 C          59.6221   88.8113    9.0427 C.3     1  UNL1        0.1110
     14 C          59.6047   87.6759    8.0627 C.3     1  UNL1        0.0939
     15 N          60.7570   86.7173    8.0047 N.3     1  UNL1       -0.2709
     16 C          60.7396   85.5819    7.0246 C.3     1  UNL1        0.0722
     17 C          61.8919   84.6235    6.9667 C.3     1  UNL1        0.0174
     18 C          63.0617   84.8004    7.8888 C.3     1  UNL1        0.0029
     19 C          63.0792   85.9358    8.8689 C.3     1  UNL1        0.0177
     20 C          61.9268   86.8942    8.9268 C.3     1  UNL1        0.0774
     21 C          61.9443   88.0297    9.9069 C.3     1  UNL1        0.1096
     22 C          66.4082   92.7243   14.9432 C.3     1  UNL1        0.2525
     23 O          66.3536   91.5944   13.9582 O.3     1  UNL1       -0.4700
     24 C          63.9764   89.8028   15.1577 C.3     1  UNL1        0.1061
     25 C          63.7661   88.4268   15.7166 C.3     1  UNL1        0.0226
     26 C          63.0137   88.2461   17.0016 C.3     1  UNL1        0.0019
     27 C          62.8034   86.8701   17.5605 C.3     1  UNL1        0.0001
     28 C          63.3456   85.6747   16.8344 C.3     1  UNL1        0.0000
     29 C          64.0980   85.8554   15.5495 C.3     1  UNL1        0.0001
     30 C          64.3083   87.2314   14.9905 C.3     1  UNL1        0.0019
@<TRIPOS>BOND
     1    22    23    1
     2    23     1    1
     3     1     2   ar
     4     2     3   ar
     5     3     4   ar
     6     4     5   ar
     7     5     6   ar
     8     6    10    1
     9    10    11    2
    10    10    12   am
    11    12    13    1
    12    13    14    1
    13    14    15    1
    14    15    16    1
    15    16    17    1
    16    17    18    1
    17    18    19    1
    18    20    19    1
    19    20    21    1
    20     6     7   ar
    21     7     8   ar
    22     8    24    1
    23    24    25    1
    24    25    26    1
    25    26    27    1
    26    27    28    1
    27    28    29    1
    28    29    30    1
    29     8     9   ar
    30     9     1   ar
    31     9     5   ar
    32    21    12    1
    33    30    25    1
    34    20    15    1
@<TRIPOS>MOLECULE
*****
 30 34 0 0 0
SMALL
GASTEIGER

@<TRIPOS>ATOM
      1 C          65.3734   92.4315   12.1561 C.ar    1  UNL1        0.1543
      2 C          66.4260   93.0253   13.0447 C.ar    1  UNL1        0.0384
      3 C          66.6301   92.4860   14.4294 C.ar    1  UNL1        0.0032
      4 C          65.7816   91.3530   14.9256 C.ar    1  UNL1        0.0018
      5 C          64.7290   90.7592   14.0371 C.ar    1  UNL1        0.0246
      6 C          63.7482   89.6444   14.2496 C.ar    1  UNL1        0.0722
      7 C          62.9379   89.4946   12.9961 C.ar    1  UNL1        0.0805
      8 N          63.4180   90.5170   12.0090 N.ar    1  UNL1       -0.3236
      9 C          64.5250   91.2985   12.6523 C.ar    1  UNL1        0.0945
     10 C          63.6031   88.8235   15.4966 C.2     1  UNL1        0.2506
     11 O          63.4555   89.5001   16.8271 O.2     1  UNL1       -0.2699
     12 N          63.6056   87.3257   15.4130 N.am    1  UNL1       -0.2732
     13 C          63.4604   86.5048   16.6600 C.3     1  UNL1        0.1110
     14 C          63.4629   85.0071   16.5765 C.3     1  UNL1        0.0939
     15 N          63.6105   84.3304   15.2460 N.3     1  UNL1       -0.2709
     16 C          63.6129   82.8327   15.1625 C.3     1  UNL1        0.0722
     17 C          63.7605   82.1560   13.8320 C.3     1  UNL1        0.0174
     18 C          63.9056   82.9770   12.5850 C.3     1  UNL1        0.0029
     19 C          63.9031   84.4746   12.6685 C.3     1  UNL1        0.0177
     20 C          63.7556   85.1513   13.9990 C.3     1  UNL1        0.0774
     21 C          63.7531   86.6490   14.0825 C.3     1  UNL1        0.1096
     22 C          66.3236   93.5658   10.0206 C.3     1  UNL1        0.2525
     23 O          65.1694   92.9708   10.7713 O.3     1  UNL1       -0.4700
     24 C          62.8847   90.7217   10.6220 C.3     1  UNL1        0.1061
     25 C          62.0567   89.6534    9.9715 C.3     1  UNL1        0.0226
     26 C          62.5299   88.2300    9.9773 C.3     1  UNL1        0.0019
     27 C          61.7019   87.1617    9.3268 C.3     1  UNL1        0.0001
     28 C          60.4007   87.5168    8.6705 C.3     1  UNL1        0.0000
     29 C          59.9275   88.9402    8.6647 C.3     1  UNL1        0.0001
     30 C          60.7555   90.0085    9.3152 C.3     1  UNL1        0.0019
@<TRIPOS>BOND
     1    22    23    1
     2    23     1    1
     3     1     2   ar
     4     2     3   ar
     5     3     4   ar
     6     4     5   ar
     7     5     6   ar
     8     6    10    1
     9    10    11    2
    10    10    12   am
    11    12    13    1
    12    13    14    1
    13    14    15    1
    14    15    16    1
    15    16    17    1
    16    17    18    1
    17    18    19    1
    18    20    19    1
    19    20    21    1
    20     6     7   ar
    21     7     8   ar
    22     8    24    1
    23    24    25    1
    24    25    26    1
    25    26    27    1
    26    27    28    1
    27    28    29    1
    28    29    30    1
    29     8     9   ar
    30     9     1   ar
    31     9     5   ar
    32    21    12    1
    33    30    25    1
    34    20    15    1
@<TRIPOS>MOLECULE
*****
 30 34 0 0 0
SMALL
GASTEIGER

@<TRIPOS>ATOM
      1 C          64.9342   91.9900   15.2091 C.ar    1  UNL1        0.1543
      2 C          64.3180   91.2425   16.3544 C.ar    1  UNL1        0.0384
      3 C          63.3324   90.1433   16.0890 C.ar    1  UNL1        0.0032
      4 C          62.9630   89.7916   14.6784 C.ar    1  UNL1        0.0018
      5 C          63.5792   90.5391   13.5332 C.ar    1  UNL1        0.0246
      6 C          63.4101   90.4167   12.0478 C.ar    1  UNL1        0.0722
      7 C          64.2912   91.4403   11.3951 C.ar    1  UNL1        0.0805
      8 N          65.0048   92.1953   12.4772 N.ar    1  UNL1       -0.3236
      9 C          64.5647   91.6383   13.7986 C.ar    1  UNL1        0.0945
     10 C          62.5168   89.4419   11.3395 C.2     1  UNL1        0.2506
     11 O          61.5858   89.9214   10.2655 O.2     1  UNL1       -0.2699
     12 N          62.5545   87.9876   11.7051 N.am    1  UNL1       -0.2732
     13 C          61.6612   87.0128   10.9967 C.3     1  UNL1        0.1110
     14 C          61.6988   85.5585   11.3623 C.3     1  UNL1        0.0939
     15 N          62.6298   85.0790   12.4363 N.3     1  UNL1       -0.2709
     16 C          62.6675   83.6248   12.8019 C.3     1  UNL1        0.0722
     17 C          63.5985   83.1453   13.8758 C.3     1  UNL1        0.0174
     18 C          64.4918   84.1201   14.5842 C.3     1  UNL1        0.0029
     19 C          64.4541   85.5744   14.2186 C.3     1  UNL1        0.0177
     20 C          63.5231   86.0538   13.1447 C.3     1  UNL1        0.0774
     21 C          63.4854   87.5081   12.7790 C.3     1  UNL1        0.1096
     22 C          67.2707   92.7649   16.0400 C.3     1  UNL1        0.2525
     23 O          65.9198   93.0893   15.4745 O.3     1  UNL1       -0.4700
     24 C          65.9861   93.3113   12.2735 C.3     1  UNL1        0.1061
     25 C          66.7671   93.3994   10.9959 C.3     1  UNL1        0.0226
     26 C          67.6478   92.2604   10.5751 C.3     1  UNL1        0.0019
     27 C          68.4288   92.3486    9.2974 C.3     1  UNL1        0.0001
     28 C          68.3291   93.5758    8.4406 C.3     1  UNL1        0.0000
     29 C          67.4485   94.7148    8.8615 C.3     1  UNL1        0.0001
     30 C          66.6675   94.6266   10.1391 C.3     1  UNL1        0.0019
@<TRIPOS>BOND
     1    22    23    1
     2    23     1    1
     3     1     2   ar
     4     2     3   ar
     5     3     4   ar
     6     4     5   ar
     7     5     6   ar
     8     6    10    1
     9    10    11    2
    10    10    12   am
    11    12    13    1
    12    13    14    1
    13    14    15    1
    14    15    16    1
    15    16    17    1
    16    17    18    1
    17    18    19    1
    18    20    19    1
    19    20    21    1
    20     6     7   ar
    21     7     8   ar
    22     8    24    1
    23    24    25    1
    24    25    26    1
    25    26    27    1
    26    27    28    1
    27    28    29    1
    28    29    30    1
    29     8     9   ar
    30     9     1   ar
    31     9     5   ar
    32    21    12    1
    33    30    25    1
    34    20    15    1
@<TRIPOS>MOLECULE
*****
 30 34 0 0 0
SMALL
GASTEIGER

@<TRIPOS>ATOM
      1 C          60.9732   87.8291    9.9162 C.ar    1  UNL1        0.1543
      2 C          60.3532   89.1742    9.6785 C.ar    1  UNL1        0.0384
      3 C          60.6879   90.3245   10.5812 C.ar    1  UNL1        0.0032
      4 C          61.6428   90.1297   11.7215 C.ar    1  UNL1        0.0018
      5 C          62.2628   88.7847   11.9592 C.ar    1  UNL1        0.0246
      6 C          63.2309   88.2948   12.9948 C.ar    1  UNL1        0.0722
      7 C          63.4946   86.8416   12.7322 C.ar    1  UNL1        0.0805
      8 N          62.6892   86.4335   11.5343 N.ar    1  UNL1       -0.3236
      9 C          61.9280   87.6344   11.0565 C.ar    1  UNL1        0.0945
     10 C          63.8303   89.1140   14.0992 C.2     1  UNL1        0.2506
     11 O          63.7850   88.6147   15.5129 O.2     1  UNL1       -0.2699
     12 N          64.4750   90.4327   13.7897 N.am    1  UNL1       -0.2732
     13 C          65.0743   91.2520   14.8941 C.3     1  UNL1        0.1110
     14 C          65.7189   92.5705   14.5847 C.3     1  UNL1        0.0939
     15 N          65.7643   93.0699   13.1709 N.3     1  UNL1       -0.2709
     16 C          66.4089   94.3885   12.8615 C.3     1  UNL1        0.0722
     17 C          66.4542   94.8878   11.4478 C.3     1  UNL1        0.0174
     18 C          65.8548   94.0685   10.3435 C.3     1  UNL1        0.0029
     19 C          65.2102   92.7499   10.6529 C.3     1  UNL1        0.0177
     20 C          65.1649   92.2506   12.0666 C.3     1  UNL1        0.0774
     21 C          64.5202   90.9320   12.3760 C.3     1  UNL1        0.1096
     22 C          59.4365   86.7525    8.1191 C.3     1  UNL1        0.2525
     23 O          60.6384   86.6788    9.0135 O.3     1  UNL1       -0.4700
     24 C          62.6519   85.0648   10.9217 C.3     1  UNL1        0.1061
     25 C          62.7135   83.8490   11.7980 C.3     1  UNL1        0.0226
     26 C          63.0716   82.5170   11.2085 C.3     1  UNL1        0.0019
     27 C          63.1332   81.3011   12.0848 C.3     1  UNL1        0.0001
     28 C          62.8367   81.4172   13.5506 C.3     1  UNL1        0.0000
     29 C          62.4786   82.7492   14.1401 C.3     1  UNL1        0.0001
     30 C          62.4170   83.9651   13.2638 C.3     1  UNL1        0.0019
@<TRIPOS>BOND
     1    22    23    1
     2    23     1    1
     3     1     2   ar
     4     2     3   ar
     5     3     4   ar
     6     4     5   ar
     7     5     6   ar
     8     6    10    1
     9    10    11    2
    10    10    12   am
    11    12    13    1
    12    13    14    1
    13    14    15    1
    14    15    16    1
    15    16    17    1
    16    17    18    1
    17    18    19    1
    18    20    19    1
    19    20    21    1
    20     6     7   ar
    21     7     8   ar
    22     8    24    1
    23    24    25    1
    24    25    26    1
    25    26    27    1
    26    27    28    1
    27    28    29    1
    28    29    30    1
    29     8     9   ar
    30     9     1   ar
    31     9     5   ar
    32    21    12    1
    33    30    25    1
    34    20    15    1
@<TRIPOS>MOLECULE
*****
 30 34 0 0 0
SMALL
GASTEIGER

@<TRIPOS>ATOM
      1 C          65.5983   91.1942   13.8333 C.ar    1  UNL1        0.1543
      2 C          65.0309   90.6013   15.0890 C.ar    1  UNL1        0.0384
      3 C          63.6234   90.0829   15.1042 C.ar    1  UNL1        0.0032
      4 C          62.7833   90.1574   13.8639 C.ar    1  UNL1        0.0018
      5 C          63.3506   90.7503   12.6082 C.ar    1  UNL1        0.0246
      6 C          62.7658   90.9566   11.2424 C.ar    1  UNL1        0.0722
      7 C          63.8119   91.6025   10.3830 C.ar    1  UNL1        0.0805
      8 N          65.0432   91.7953   11.2177 N.ar    1  UNL1       -0.3236
      9 C          64.7581   91.2687   12.5930 C.ar    1  UNL1        0.0945
     10 C          61.3785   90.5826   10.8116 C.2     1  UNL1        0.2506
     11 O          60.2212   91.4732   11.1541 O.2     1  UNL1       -0.2699
     12 N          61.1486   89.3180   10.0383 N.am    1  UNL1       -0.2732
     13 C          59.7613   88.9440    9.6075 C.3     1  UNL1        0.1110
     14 C          59.5314   87.6795    8.8343 C.3     1  UNL1        0.0939
     15 N          60.6888   86.7888    8.4918 N.3     1  UNL1       -0.2709
     16 C          60.4588   85.5242    7.7186 C.3     1  UNL1        0.0722
     17 C          61.6162   84.6336    7.3761 C.3     1  UNL1        0.0174
     18 C          63.0034   85.0075    7.8069 C.3     1  UNL1        0.0029
     19 C          63.2334   86.2721    8.5802 C.3     1  UNL1        0.0177
     20 C          62.0761   87.1627    8.9226 C.3     1  UNL1        0.0774
     21 C          62.3060   88.4273    9.6959 C.3     1  UNL1        0.1096
     22 C          67.3300   93.0218   14.4745 C.3     1  UNL1        0.2525
     23 O          67.0058   91.7126   13.8181 O.3     1  UNL1       -0.4700
     24 C          66.3331   92.4074   10.7579 C.3     1  UNL1        0.1061
     25 C          66.4243   93.8885   10.5385 C.3     1  UNL1        0.0226
     26 C          67.0151   94.4235    9.2678 C.3     1  UNL1        0.0019
     27 C          67.1063   95.9046    9.0485 C.3     1  UNL1        0.0001
     28 C          66.6067   96.8507   10.0998 C.3     1  UNL1        0.0000
     29 C          66.0159   96.3157   11.3706 C.3     1  UNL1        0.0001
     30 C          65.9248   94.8346   11.5899 C.3     1  UNL1        0.0019
@<TRIPOS>BOND
     1    22    23    1
     2    23     1    1
     3     1     2   ar
     4     2     3   ar
     5     3     4   ar
     6     4     5   ar
     7     5     6   ar
     8     6    10    1
     9    10    11    2
    10    10    12   am
    11    12    13    1
    12    13    14    1
    13    14    15    1
    14    15    16    1
    15    16    17    1
    16    17    18    1
    17    18    19    1
    18    20    19    1
    19    20    21    1
    20     6     7   ar
    21     7     8   ar
    22     8    24    1
    23    24    25    1
    24    25    26    1
    25    26    27    1
    26    27    28    1
    27    28    29    1
    28    29    30    1
    29     8     9   ar
    30     9     1   ar
    31     9     5   ar
    32    21    12    1
    33    30    25    1
    34    20    15    1
@<TRIPOS>MOLECULE
*****
 30 34 0 0 0
SMALL
GASTEIGER

@<TRIPOS>ATOM
      1 C          60.0198   89.6374    9.4747 C.ar    1  UNL1        0.1543
      2 C          59.1908   89.3781    8.2517 C.ar    1  UNL1        0.0384
      3 C          59.4148   88.1344    7.4437 C.ar    1  UNL1        0.0032
      4 C          60.4677   87.1499    7.8587 C.ar    1  UNL1        0.0018
      5 C          61.2966   87.4092    9.0817 C.ar    1  UNL1        0.0246
      6 C          62.3991   86.6266    9.7313 C.ar    1  UNL1        0.0722
      7 C          62.8565   87.3867   10.9409 C.ar    1  UNL1        0.0805
      8 N          62.0367   88.6391   11.0387 N.ar    1  UNL1       -0.3236
      9 C          61.0726   88.6530    9.8896 C.ar    1  UNL1        0.0945
     10 C          62.9478   85.3143    9.2551 C.2     1  UNL1        0.2506
     11 O          63.4016   85.1627    7.8335 O.2     1  UNL1       -0.2699
     12 N          63.0427   84.1536   10.2005 N.am    1  UNL1       -0.2732
     13 C          63.5915   82.8413    9.7243 C.3     1  UNL1        0.1110
     14 C          63.6864   81.6806   10.6697 C.3     1  UNL1        0.0939
     15 N          63.2326   81.8322   12.0914 N.3     1  UNL1       -0.2709
     16 C          63.3275   80.6715   13.0367 C.3     1  UNL1        0.0722
     17 C          62.8737   80.8231   14.4584 C.3     1  UNL1        0.0174
     18 C          62.3249   82.1354   14.9346 C.3     1  UNL1        0.0029
     19 C          62.2300   83.2961   13.9892 C.3     1  UNL1        0.0177
     20 C          62.6838   83.1445   12.5676 C.3     1  UNL1        0.0774
     21 C          62.5889   84.3052   11.6222 C.3     1  UNL1        0.1096
     22 C          59.0377   90.8096   11.5751 C.3     1  UNL1        0.2525
     23 O          59.7958   90.8812   10.2827 O.3     1  UNL1       -0.4700
     24 C          62.1594   89.6926   12.0994 C.3     1  UNL1        0.1061
     25 C          63.3304   90.6300   12.0935 C.3     1  UNL1        0.0226
     26 C          63.7017   91.3583   10.8359 C.3     1  UNL1        0.0019
     27 C          64.8727   92.2958   10.8299 C.3     1  UNL1        0.0001
     28 C          65.6723   92.5050   12.0816 C.3     1  UNL1        0.0000
     29 C          65.3010   91.7766   13.3393 C.3     1  UNL1        0.0001
     30 C          64.1301   90.8392   13.3452 C.3     1  UNL1        0.0019
@<TRIPOS>BOND
     1    22    23    1
     2    23     1    1
     3     1     2   ar
     4     2     3   ar
     5     3     4   ar
     6     4     5   ar
     7     5     6   ar
     8     6    10    1
     9    10    11    2
    10    10    12   am
    11    12    13    1
    12    13    14    1
    13    14    15    1
    14    15    16    1
    15    16    17    1
    16    17    18    1
    17    18    19    1
    18    20    19    1
    19    20    21    1
    20     6     7   ar
    21     7     8   ar
    22     8    24    1
    23    24    25    1
    24    25    26    1
    25    26    27    1
    26    27    28    1
    27    28    29    1
    28    29    30    1
    29     8     9   ar
    30     9     1   ar
    31     9     5   ar
    32    21    12    1
    33    30    25    1
    34    20    15    1
