@<TRIPOS>MOLECULE
*****
 35 40 0 0 0
SMALL
GASTEIGER

@<TRIPOS>ATOM
      1 N          63.1833   86.0132   15.9648 N.3     1  UNL1       -0.1568
      2 C          62.7266   85.5852   17.3280 C.3     1  UNL1        0.0958
      3 C          62.6394   86.8077   18.1928 C.3     1  UNL1        0.0206
      4 C          63.0423   87.9914   17.3641 C.3     1  UNL1        0.0192
      5 C          63.3784   87.5003   15.9871 C.3     1  UNL1        0.0810
      6 O          64.8705   85.4350   14.8163 O.2     1  UNL1       -0.1527
      7 S          63.4059   85.1124   14.7863 S.O2    1  UNL1        0.0647
      8 O          61.9413   84.7898   14.7563 O.2     1  UNL1       -0.1527
      9 C          63.6284   84.2116   13.6077 C.ar    1  UNL1        0.1412
     10 C          64.2172   82.8465   13.8077 C.ar    1  UNL1        0.1187
     11 N          64.4397   81.9457   12.6292 N.ar    1  UNL1       -0.2409
     12 C          64.0735   82.4099   11.2507 C.ar    1  UNL1        0.0989
     13 C          63.4847   83.7749   11.0506 C.ar    1  UNL1        0.0205
     14 C          63.1185   84.2391    9.6721 C.ar    1  UNL1        0.0016
     15 C          62.5298   85.6041    9.4721 C.ar    1  UNL1        0.0001
     16 C          62.3072   86.5050   10.6506 C.ar    1  UNL1        0.0000
     17 C          62.6734   86.0408   12.0292 C.ar    1  UNL1        0.0014
     18 C          63.2622   84.6758   12.2291 C.ar    1  UNL1        0.0217
     19 C          63.8303   88.3477   14.8348 C.3     1  UNL1        0.0350
     20 C          64.0298   89.8226   15.0212 C.3     1  UNL1        0.0736
     21 N          64.7181   90.6266   13.9584 N.3     1  UNL1       -0.2697
     22 C          64.0265   90.8943   12.6545 C.3     1  UNL1        0.0938
     23 C          64.7149   91.6984   11.5917 C.3     1  UNL1        0.1081
     24 N          66.0948   92.2347   11.8327 N.pl3   1  UNL1       -0.3046
     25 C          66.7864   91.9671   13.1365 C.3     1  UNL1        0.1081
     26 C          66.0981   91.1631   14.1994 C.3     1  UNL1        0.0938
     27 C          66.7831   93.0388   10.7697 C.ar    1  UNL1        0.0484
     28 C          67.6612   92.3561    9.7634 C.ar    1  UNL1        0.0146
     29 C          68.3494   93.1601    8.7006 C.ar    1  UNL1        0.0018
     30 C          68.1596   94.6470    8.6440 C.ar    1  UNL1        0.0066
     31 C          67.2815   95.3298    9.6503 C.ar    1  UNL1        0.0307
     32 S          66.9078   96.7696    9.8434 S.2     1  UNL1       -0.0864
     33 C          65.9885   96.8554   11.0257 C.ar    1  UNL1        0.0355
     34 C          65.7941   95.4685   11.5632 C.ar    1  UNL1        0.0087
     35 C          66.5932   94.5257   10.7132 C.ar    1  UNL1        0.0198
@<TRIPOS>BOND
     1     6     7    2
     2     7     8    2
     3     7     9    1
     4     9    10   ar
     5    10    11   ar
     6    11    12   ar
     7    12    13   ar
     8    13    14   ar
     9    14    15   ar
    10    15    16   ar
    11    16    17   ar
    12    17    18   ar
    13     7     1    1
    14     1     2    1
    15     2     3    1
    16     3     4    1
    17     4     5    1
    18     5    19    1
    19    19    20    1
    20    20    21    1
    21    21    22    1
    22    22    23    1
    23    23    24    1
    24    24    27    1
    25    27    28   ar
    26    28    29   ar
    27    29    30   ar
    28    30    31   ar
    29    31    32   ar
    30    32    33   ar
    31    33    34   ar
    32    34    35   ar
    33    24    25    1
    34    25    26    1
    35    18     9   ar
    36     5     1    1
    37    26    21    1
    38    18    13   ar
    39    35    27   ar
    40    35    31   ar
@<TRIPOS>MOLECULE
*****
 35 40 0 0 0
SMALL
GASTEIGER

@<TRIPOS>ATOM
      1 N          63.2055   85.8763   15.5387 N.3     1  UNL1       -0.1568
      2 C          62.6536   85.2564   16.7882 C.3     1  UNL1        0.0958
      3 C          62.5831   86.3216   17.8420 C.3     1  UNL1        0.0206
      4 C          63.0914   87.5998   17.2439 C.3     1  UNL1        0.0192
      5 C          63.4760   87.3246   15.8204 C.3     1  UNL1        0.0810
      6 O          61.9848   84.8387   14.1483 O.2     1  UNL1       -0.1527
      7 S          63.4447   85.1717   14.2364 S.O2    1  UNL1        0.0647
      8 O          64.9047   85.5047   14.3244 O.2     1  UNL1       -0.1527
      9 C          63.6840   84.4670   12.9340 C.ar    1  UNL1        0.1412
     10 C          64.3979   83.1480   12.9150 C.ar    1  UNL1        0.1187
     11 N          64.6371   82.4433   11.6126 N.ar    1  UNL1       -0.2409
     12 C          64.1625   83.0577   10.3292 C.ar    1  UNL1        0.0989
     13 C          63.4487   84.3769   10.3481 C.ar    1  UNL1        0.0205
     14 C          62.9741   84.9913    9.0647 C.ar    1  UNL1        0.0016
     15 C          62.2602   86.3104    9.0837 C.ar    1  UNL1        0.0001
     16 C          62.0209   87.0150   10.3861 C.ar    1  UNL1        0.0000
     17 C          62.4955   86.4006   11.6695 C.ar    1  UNL1        0.0014
     18 C          63.2094   85.0815   11.6505 C.ar    1  UNL1        0.0217
     19 C          64.0333   88.3225   14.8490 C.3     1  UNL1        0.0350
     20 C          63.8757   89.7913   15.1092 C.3     1  UNL1        0.0736
     21 N          64.4540   90.7892   14.1503 N.3     1  UNL1       -0.2697
     22 C          65.6103   91.6484   14.5684 C.3     1  UNL1        0.0938
     23 C          66.1886   92.6463   13.6094 C.3     1  UNL1        0.1081
     24 N          65.6105   92.7852   12.2322 N.pl3   1  UNL1       -0.3046
     25 C          64.4542   91.9261   11.8141 C.3     1  UNL1        0.1081
     26 C          63.8760   90.9282   12.7730 C.3     1  UNL1        0.0938
     27 C          66.1889   93.7832   11.2733 C.ar    1  UNL1        0.0484
     28 C          65.7900   95.2264   11.3614 C.ar    1  UNL1        0.0146
     29 C          66.3684   96.2243   10.4025 C.ar    1  UNL1        0.0018
     30 C          67.3457   95.7790    9.3553 C.ar    1  UNL1        0.0066
     31 C          67.7446   94.3357    9.2672 C.ar    1  UNL1        0.0307
     32 S          68.6790   93.6071    8.3474 S.2     1  UNL1       -0.0864
     33 C          68.6782   92.1587    8.7380 C.ar    1  UNL1        0.0355
     34 C          67.7432   91.9924    9.8991 C.ar    1  UNL1        0.0087
     35 C          67.1662   93.3378   10.2261 C.ar    1  UNL1        0.0198
@<TRIPOS>BOND
     1     6     7    2
     2     7     8    2
     3     7     9    1
     4     9    10   ar
     5    10    11   ar
     6    11    12   ar
     7    12    13   ar
     8    13    14   ar
     9    14    15   ar
    10    15    16   ar
    11    16    17   ar
    12    17    18   ar
    13     7     1    1
    14     1     2    1
    15     2     3    1
    16     3     4    1
    17     4     5    1
    18     5    19    1
    19    19    20    1
    20    20    21    1
    21    21    22    1
    22    22    23    1
    23    23    24    1
    24    24    27    1
    25    27    28   ar
    26    28    29   ar
    27    29    30   ar
    28    30    31   ar
    29    31    32   ar
    30    32    33   ar
    31    33    34   ar
    32    34    35   ar
    33    24    25    1
    34    25    26    1
    35    18     9   ar
    36     5     1    1
    37    26    21    1
    38    18    13   ar
    39    35    27   ar
    40    35    31   ar
@<TRIPOS>MOLECULE
*****
 35 40 0 0 0
SMALL
GASTEIGER

@<TRIPOS>ATOM
      1 N          66.2525   92.4527   13.8409 N.3     1  UNL1       -0.1568
      2 C          66.7326   93.1508   15.0786 C.3     1  UNL1        0.0958
      3 C          65.9718   92.5982   16.2473 C.3     1  UNL1        0.0206
      4 C          65.0214   91.5584   15.7318 C.3     1  UNL1        0.0192
      5 C          65.1949   91.4685   14.2446 C.3     1  UNL1        0.0810
      6 O          65.3553   93.0755   12.0223 O.2     1  UNL1       -0.1527
      7 S          66.7437   92.6959   12.4446 S.O2    1  UNL1        0.0647
      8 O          68.1320   92.3163   12.8669 O.2     1  UNL1       -0.1527
      9 C          67.2349   92.9392   11.0484 C.ar    1  UNL1        0.1412
     10 C          68.0159   91.8775   10.3324 C.ar    1  UNL1        0.1187
     11 N          68.5071   92.1207    8.9361 N.ar    1  UNL1       -0.2409
     12 C          68.2173   93.4258    8.2558 C.ar    1  UNL1        0.0989
     13 C          67.4362   94.4876    8.9718 C.ar    1  UNL1        0.0205
     14 C          67.1463   95.7926    8.2915 C.ar    1  UNL1        0.0016
     15 C          66.3653   96.8544    9.0074 C.ar    1  UNL1        0.0001
     16 C          65.8741   96.6111   10.4037 C.ar    1  UNL1        0.0000
     17 C          66.1639   95.3061   11.0840 C.ar    1  UNL1        0.0014
     18 C          66.9450   94.2443   10.3680 C.ar    1  UNL1        0.0217
     19 C          64.4428   90.5548   13.3228 C.3     1  UNL1        0.0350
     20 C          63.4398   89.5880   13.8789 C.3     1  UNL1        0.0736
     21 N          63.4195   88.1679   13.3966 N.3     1  UNL1       -0.2697
     22 C          62.7615   87.8281   12.0923 C.3     1  UNL1        0.0938
     23 C          62.7413   86.4078   11.6100 C.3     1  UNL1        0.1081
     24 N          63.3791   85.3275   12.4321 N.pl3   1  UNL1       -0.3046
     25 C          64.0372   85.6673   13.7365 C.3     1  UNL1        0.1081
     26 C          64.0574   87.0874   14.2188 C.3     1  UNL1        0.0938
     27 C          63.3589   83.9072   11.9498 C.ar    1  UNL1        0.0484
     28 C          63.9376   83.5619   10.6097 C.ar    1  UNL1        0.0146
     29 C          63.9174   82.1417   10.1274 C.ar    1  UNL1        0.0018
     30 C          63.3183   81.0668   10.9852 C.ar    1  UNL1        0.0066
     31 C          62.7396   81.4121   12.3253 C.ar    1  UNL1        0.0307
     32 S          62.0866   80.5727   13.3831 S.2     1  UNL1       -0.0864
     33 C          61.7033   81.4741   14.5192 C.ar    1  UNL1        0.0355
     34 C          62.1194   82.8706   14.1634 C.ar    1  UNL1        0.0087
     35 C          62.7599   82.8324   12.8076 C.ar    1  UNL1        0.0198
@<TRIPOS>BOND
     1     6     7    2
     2     7     8    2
     3     7     9    1
     4     9    10   ar
     5    10    11   ar
     6    11    12   ar
     7    12    13   ar
     8    13    14   ar
     9    14    15   ar
    10    15    16   ar
    11    16    17   ar
    12    17    18   ar
    13     7     1    1
    14     1     2    1
    15     2     3    1
    16     3     4    1
    17     4     5    1
    18     5    19    1
    19    19    20    1
    20    20    21    1
    21    21    22    1
    22    22    23    1
    23    23    24    1
    24    24    27    1
    25    27    28   ar
    26    28    29   ar
    27    29    30   ar
    28    30    31   ar
    29    31    32   ar
    30    32    33   ar
    31    33    34   ar
    32    34    35   ar
    33    24    25    1
    34    25    26    1
    35    18     9   ar
    36     5     1    1
    37    26    21    1
    38    18    13   ar
    39    35    27   ar
    40    35    31   ar
@<TRIPOS>MOLECULE
*****
 35 40 0 0 0
SMALL
GASTEIGER

@<TRIPOS>ATOM
      1 N          63.5291   86.1219   13.2884 N.3     1  UNL1       -0.1568
      2 C          64.2597   84.8220   13.4511 C.3     1  UNL1        0.0958
      3 C          65.1211   84.9244   14.6749 C.3     1  UNL1        0.0206
      4 C          64.9228   86.2876   15.2684 C.3     1  UNL1        0.0192
      5 C          63.9389   87.0277   14.4115 C.3     1  UNL1        0.0810
      6 O          61.9083   85.1158   12.3605 O.2     1  UNL1       -0.1527
      7 S          62.5590   86.4571   12.1945 S.O2    1  UNL1        0.0647
      8 O          63.2096   87.7984   12.0285 O.2     1  UNL1       -0.1527
      9 C          61.5889   86.7923   11.1007 C.ar    1  UNL1        0.1412
     10 C          60.4678   87.7542   11.3612 C.ar    1  UNL1        0.1187
     11 N          59.4977   88.0894   10.2673 N.ar    1  UNL1       -0.2409
     12 C          59.6486   87.4627    8.9129 C.ar    1  UNL1        0.0989
     13 C          60.7697   86.5008    8.6523 C.ar    1  UNL1        0.0205
     14 C          60.9207   85.8741    7.2980 C.ar    1  UNL1        0.0016
     15 C          62.0417   84.9122    7.0374 C.ar    1  UNL1        0.0001
     16 C          63.0118   84.5769    8.1313 C.ar    1  UNL1        0.0000
     17 C          62.8609   85.2036    9.4857 C.ar    1  UNL1        0.0014
     18 C          61.7399   86.1655    9.7462 C.ar    1  UNL1        0.0217
     19 C          63.4506   88.4278   14.6381 C.3     1  UNL1        0.0350
     20 C          64.3938   89.4784   15.1446 C.3     1  UNL1        0.0736
     21 N          64.8744   90.5613   14.2247 N.3     1  UNL1       -0.2697
     22 C          64.0725   90.9242   13.0101 C.3     1  UNL1        0.0938
     23 C          64.5531   92.0072   12.0901 C.3     1  UNL1        0.1081
     24 N          65.8356   92.7272   12.3848 N.pl3   1  UNL1       -0.3046
     25 C          66.6375   92.3642   13.5994 C.3     1  UNL1        0.1081
     26 C          66.1569   91.2813   14.5193 C.3     1  UNL1        0.0938
     27 C          66.3162   93.8101   11.4648 C.ar    1  UNL1        0.0484
     28 C          65.9238   95.2360   11.7153 C.ar    1  UNL1        0.0146
     29 C          66.4043   96.3188   10.7953 C.ar    1  UNL1        0.0018
     30 C          67.2774   95.9758    9.6247 C.ar    1  UNL1        0.0066
     31 C          67.6698   94.5499    9.3742 C.ar    1  UNL1        0.0307
     32 S          68.5131   93.9132    8.3096 S.2     1  UNL1       -0.0864
     33 C          68.5538   92.4368    8.5716 C.ar    1  UNL1        0.0355
     34 C          67.7355   92.1611    9.7982 C.ar    1  UNL1        0.0087
     35 C          67.1892   93.4670   10.2943 C.ar    1  UNL1        0.0198
@<TRIPOS>BOND
     1     6     7    2
     2     7     8    2
     3     7     9    1
     4     9    10   ar
     5    10    11   ar
     6    11    12   ar
     7    12    13   ar
     8    13    14   ar
     9    14    15   ar
    10    15    16   ar
    11    16    17   ar
    12    17    18   ar
    13     7     1    1
    14     1     2    1
    15     2     3    1
    16     3     4    1
    17     4     5    1
    18     5    19    1
    19    19    20    1
    20    20    21    1
    21    21    22    1
    22    22    23    1
    23    23    24    1
    24    24    27    1
    25    27    28   ar
    26    28    29   ar
    27    29    30   ar
    28    30    31   ar
    29    31    32   ar
    30    32    33   ar
    31    33    34   ar
    32    34    35   ar
    33    24    25    1
    34    25    26    1
    35    18     9   ar
    36     5     1    1
    37    26    21    1
    38    18    13   ar
    39    35    27   ar
    40    35    31   ar
@<TRIPOS>MOLECULE
*****
 35 40 0 0 0
SMALL
GASTEIGER

@<TRIPOS>ATOM
      1 N          61.7550   85.4659    9.0323 N.3     1  UNL1       -0.1568
      2 C          62.3180   84.7245    7.8561 C.3     1  UNL1        0.0958
      3 C          61.4723   85.0436    6.6590 C.3     1  UNL1        0.0206
      4 C          60.3867   85.9823    7.0953 C.3     1  UNL1        0.0192
      5 C          60.5615   86.2432    8.5621 C.3     1  UNL1        0.0810
      6 O          63.5898   84.8831    9.9234 O.2     1  UNL1       -0.1527
      7 S          62.2915   85.4353   10.4328 S.O2    1  UNL1        0.0647
      8 O          60.9932   85.9876   10.9421 O.2     1  UNL1       -0.1527
      9 C          62.8279   85.4048   11.8332 C.ar    1  UNL1        0.1412
     10 C          63.1996   86.6843   12.5221 C.ar    1  UNL1        0.1187
     11 N          63.7360   86.6538   13.9226 N.ar    1  UNL1       -0.2409
     12 C          63.9008   85.3437   14.6342 C.ar    1  UNL1        0.0989
     13 C          63.5291   84.0640   13.9453 C.ar    1  UNL1        0.0205
     14 C          63.6939   82.7539   14.6569 C.ar    1  UNL1        0.0016
     15 C          63.3223   81.4744   13.9680 C.ar    1  UNL1        0.0001
     16 C          62.7858   81.5049   12.5676 C.ar    1  UNL1        0.0000
     17 C          62.6211   82.8150   11.8560 C.ar    1  UNL1        0.0014
     18 C          62.9927   84.0946   12.5448 C.ar    1  UNL1        0.0217
     19 C          59.6948   87.1265    9.4098 C.3     1  UNL1        0.0350
     20 C          59.8821   88.6145    9.3783 C.3     1  UNL1        0.0736
     21 N          60.9394   89.2555   10.2274 N.3     1  UNL1       -0.2697
     22 C          62.2180   89.7293    9.6024 C.3     1  UNL1        0.0938
     23 C          63.2754   90.3703   10.4516 C.3     1  UNL1        0.1081
     24 N          63.0541   90.5376   11.9257 N.pl3   1  UNL1       -0.3046
     25 C          61.7755   90.0637   12.5507 C.3     1  UNL1        0.1081
     26 C          60.7182   89.4227   11.7016 C.3     1  UNL1        0.0938
     27 C          64.1116   91.1786   12.7748 C.ar    1  UNL1        0.0484
     28 C          64.3410   90.6980   14.1771 C.ar    1  UNL1        0.0146
     29 C          65.3983   91.3391   15.0261 C.ar    1  UNL1        0.0018
     30 C          66.2264   92.4609   14.4728 C.ar    1  UNL1        0.0066
     31 C          65.9970   92.9414   13.0705 C.ar    1  UNL1        0.0307
     32 S          66.6526   94.0194   12.2592 S.2     1  UNL1       -0.0864
     33 C          66.0002   94.0445   10.9086 C.ar    1  UNL1        0.0355
     34 C          64.9416   92.9820   10.8854 C.ar    1  UNL1        0.0087
     35 C          64.9396   92.3003   12.2215 C.ar    1  UNL1        0.0198
@<TRIPOS>BOND
     1     6     7    2
     2     7     8    2
     3     7     9    1
     4     9    10   ar
     5    10    11   ar
     6    11    12   ar
     7    12    13   ar
     8    13    14   ar
     9    14    15   ar
    10    15    16   ar
    11    16    17   ar
    12    17    18   ar
    13     7     1    1
    14     1     2    1
    15     2     3    1
    16     3     4    1
    17     4     5    1
    18     5    19    1
    19    19    20    1
    20    20    21    1
    21    21    22    1
    22    22    23    1
    23    23    24    1
    24    24    27    1
    25    27    28   ar
    26    28    29   ar
    27    29    30   ar
    28    30    31   ar
    29    31    32   ar
    30    32    33   ar
    31    33    34   ar
    32    34    35   ar
    33    24    25    1
    34    25    26    1
    35    18     9   ar
    36     5     1    1
    37    26    21    1
    38    18    13   ar
    39    35    27   ar
    40    35    31   ar
