@<TRIPOS>MOLECULE
*****
 31 35 0 0 0
SMALL
GASTEIGER

@<TRIPOS>ATOM
      1 O          62.3908   91.5418    2.0770 O.2     1  UNL1       -0.2911
      2 C          61.9523   92.8702    1.5354 C.2     1  UNL1        0.1795
      3 C          60.6239   92.9995    0.8510 C.3     1  UNL1        0.1092
      4 C          60.1853   94.3279    0.3094 C.3     1  UNL1        0.1436
      5 C          59.7469   95.6562   -0.2321 C.3     1  UNL1        0.0620
      6 C          58.4184   95.7855   -0.9166 C.3     1  UNL1        0.0985
      7 N          57.5285   94.5865   -1.0595 N.am    1  UNL1       -0.2640
      8 C          56.2000   94.7159   -1.7440 C.2     1  UNL1        0.3039
      9 O          55.3101   93.5169   -1.8870 O.2     1  UNL1       -0.2526
     10 N          55.7615   96.0442   -2.2855 N.am    1  UNL1       -0.2904
     11 C          57.9670   93.2582   -0.5180 C.3     1  UNL1        0.0985
     12 C          59.2954   93.1289    0.1665 C.3     1  UNL1        0.0620
     13 O          61.0753   95.5269    0.4523 O.3     1  UNL1       -0.4819
     14 C          62.4038   95.3975    1.1368 C.ar    1  UNL1        0.1409
     15 C          63.2937   96.5965    1.2798 C.ar    1  UNL1        0.0370
     16 C          64.6221   96.4671    1.9642 C.ar    1  UNL1        0.0031
     17 C          65.0607   95.1388    2.5058 C.ar    1  UNL1        0.0003
     18 C          64.1707   93.9398    2.3628 C.ar    1  UNL1        0.0059
     19 C          62.8422   94.0692    1.6783 C.ar    1  UNL1        0.0687
     20 H          56.3456   96.8311   -2.1917 H       1  UNL1        0.1509
     21 C          54.4330   96.1736   -2.9700 C.3     1  UNL1        0.0737
     22 C          54.4446   95.9735   -4.4565 C.3     1  UNL1        0.0243
     23 C          53.2946   96.0364   -5.4176 C.3     1  UNL1        0.0277
     24 C          51.8491   96.3148   -5.1295 C.ar    1  UNL1       -0.0261
     25 C          51.0249   96.2847   -6.3824 C.ar    1  UNL1       -0.0046
     26 C          49.5482   96.5389   -6.3150 C.ar    1  UNL1       -0.0003
     27 C          48.8957   96.8233   -4.9947 C.ar    1  UNL1       -0.0003
     28 C          49.7199   96.8535   -3.7418 C.ar    1  UNL1       -0.0046
     29 C          51.1966   96.5992   -3.8092 C.ar    1  UNL1       -0.0261
     30 C          51.8284   96.6754   -2.4508 C.3     1  UNL1        0.0277
     31 C          53.2687   96.4860   -2.0774 C.3     1  UNL1        0.0243
@<TRIPOS>BOND
     1     1     2    2
     2     2     3    1
     3     3     4    1
     4     4     5    1
     5     5     6    1
     6     6     7    1
     7     7     8   am
     8     8     9    2
     9     8    10   am
    10    10    21    1
    11    21    22    1
    12    22    23    1
    13    23    24    1
    14    24    25   ar
    15    25    26   ar
    16    26    27   ar
    17    27    28   ar
    18    28    29   ar
    19    29    30    1
    20    30    31    1
    21     7    11    1
    22    11    12    1
    23     4    13    1
    24    13    14    1
    25    14    15   ar
    26    15    16   ar
    27    16    17   ar
    28    17    18   ar
    29    18    19   ar
    30    19     2    1
    31    12     4    1
    32    19    14   ar
    33    31    21    1
    34    29    24   ar
    35    10    20    1
@<TRIPOS>MOLECULE
*****
 31 35 0 0 0
SMALL
GASTEIGER

@<TRIPOS>ATOM
      1 O          63.9370   92.6482   -2.8590 O.2     1  UNL1       -0.2911
      2 C          62.8825   93.4717   -2.1808 C.2     1  UNL1        0.1795
      3 C          61.5400   93.6499   -2.8256 C.3     1  UNL1        0.1092
      4 C          60.4855   94.4734   -2.1474 C.3     1  UNL1        0.1436
      5 C          59.4311   95.2969   -1.4692 C.3     1  UNL1        0.0620
      6 C          58.0886   95.4751   -2.1140 C.3     1  UNL1        0.0985
      7 N          57.8005   94.8298   -3.4371 N.am    1  UNL1       -0.2640
      8 C          56.4579   95.0080   -4.0820 C.2     1  UNL1        0.3039
      9 O          56.1698   94.3627   -5.4051 O.2     1  UNL1       -0.2526
     10 N          55.4035   95.8315   -3.4038 N.am    1  UNL1       -0.2904
     11 C          58.8549   94.0063   -4.1154 C.3     1  UNL1        0.0985
     12 C          60.1974   93.8281   -3.4705 C.3     1  UNL1        0.0620
     13 O          60.7736   95.1187   -0.8243 O.3     1  UNL1       -0.4819
     14 C          62.1162   94.9405   -0.1794 C.ar    1  UNL1        0.1409
     15 C          62.4043   95.5858    1.1436 C.ar    1  UNL1        0.0370
     16 C          63.7468   95.4076    1.7885 C.ar    1  UNL1        0.0031
     17 C          64.8013   94.5841    1.1103 C.ar    1  UNL1        0.0003
     18 C          64.5132   93.9388   -0.2128 C.ar    1  UNL1        0.0059
     19 C          63.1706   94.1170   -0.8577 C.ar    1  UNL1        0.0687
     20 H          55.5926   96.2551   -2.5354 H       1  UNL1        0.1509
     21 C          54.0609   96.0098   -4.0486 C.3     1  UNL1        0.0737
     22 C          52.8887   96.0411   -3.1133 C.3     1  UNL1        0.0243
     23 C          51.4341   96.2035   -3.4420 C.3     1  UNL1        0.0277
     24 C          50.7926   96.3746   -4.7870 C.ar    1  UNL1       -0.0261
     25 C          49.3027   96.5034   -4.6712 C.ar    1  UNL1       -0.0046
     26 C          48.4673   96.6833   -5.9039 C.ar    1  UNL1       -0.0003
     27 C          49.1219   96.7344   -7.2526 C.ar    1  UNL1       -0.0003
     28 C          50.6119   96.6056   -7.3684 C.ar    1  UNL1       -0.0046
     29 C          51.4472   96.4257   -6.1356 C.ar    1  UNL1       -0.0261
     30 C          52.9051   96.3182   -6.4724 C.3     1  UNL1        0.0277
     31 C          54.0682   96.1331   -5.5435 C.3     1  UNL1        0.0243
@<TRIPOS>BOND
     1     1     2    2
     2     2     3    1
     3     3     4    1
     4     4     5    1
     5     5     6    1
     6     6     7    1
     7     7     8   am
     8     8     9    2
     9     8    10   am
    10    10    21    1
    11    21    22    1
    12    22    23    1
    13    23    24    1
    14    24    25   ar
    15    25    26   ar
    16    26    27   ar
    17    27    28   ar
    18    28    29   ar
    19    29    30    1
    20    30    31    1
    21     7    11    1
    22    11    12    1
    23     4    13    1
    24    13    14    1
    25    14    15   ar
    26    15    16   ar
    27    16    17   ar
    28    17    18   ar
    29    18    19   ar
    30    19     2    1
    31    12     4    1
    32    19    14   ar
    33    31    21    1
    34    29    24   ar
    35    10    20    1
@<TRIPOS>MOLECULE
*****
 31 35 0 0 0
SMALL
GASTEIGER

@<TRIPOS>ATOM
      1 O          45.4407   81.0243   21.6326 O.2     1  UNL1       -0.2911
      2 C          44.9729   80.1817   20.4831 C.2     1  UNL1        0.1795
      3 C          44.9406   80.7548   19.0973 C.3     1  UNL1        0.1092
      4 C          44.4728   79.9122   17.9479 C.3     1  UNL1        0.1436
      5 C          44.0050   79.0695   16.7985 C.3     1  UNL1        0.0620
      6 C          43.9727   79.6427   15.4127 C.3     1  UNL1        0.0985
      7 N          44.4083   81.0584   15.1763 N.am    1  UNL1       -0.2640
      8 C          44.3760   81.6316   13.7904 C.2     1  UNL1        0.3039
      9 O          44.8116   83.0473   13.5540 O.2     1  UNL1       -0.2526
     10 N          43.9082   80.7889   12.6411 N.am    1  UNL1       -0.2904
     11 C          44.8761   81.9011   16.3257 C.3     1  UNL1        0.0985
     12 C          44.9083   81.3279   17.7114 C.3     1  UNL1        0.0620
     13 O          44.0372   78.4964   18.1843 O.3     1  UNL1       -0.4819
     14 C          44.0695   77.9233   19.5702 C.ar    1  UNL1        0.1409
     15 C          43.6339   76.5075   19.8066 C.ar    1  UNL1        0.0370
     16 C          43.6662   75.9344   21.1924 C.ar    1  UNL1        0.0031
     17 C          44.1340   76.7770   22.3418 C.ar    1  UNL1        0.0003
     18 C          44.5696   78.1928   22.1054 C.ar    1  UNL1        0.0059
     19 C          44.5373   78.7659   20.7195 C.ar    1  UNL1        0.0687
     20 H          43.6223   79.8597   12.7963 H       1  UNL1        0.1509
     21 C          43.8759   81.3620   11.2552 C.3     1  UNL1        0.0737
     22 C          43.9917   80.3687   10.1373 C.3     1  UNL1        0.0243
     23 C          43.9923   80.6208    8.6586 C.3     1  UNL1        0.0277
     24 C          43.8772   81.9283    7.9327 C.ar    1  UNL1       -0.0261
     25 C          43.9213   81.7354    6.4458 C.ar    1  UNL1       -0.0046
     26 C          43.8213   82.9210    5.5324 C.ar    1  UNL1       -0.0003
     27 C          43.6772   84.2995    6.1059 C.ar    1  UNL1       -0.0003
     28 C          43.6331   84.4924    7.5927 C.ar    1  UNL1       -0.0046
     29 C          43.7331   83.3068    8.5062 C.ar    1  UNL1       -0.0261
     30 C          43.6685   83.7183    9.9472 C.3     1  UNL1        0.0277
     31 C          43.7320   82.8527   11.1706 C.3     1  UNL1        0.0243
@<TRIPOS>BOND
     1     1     2    2
     2     2     3    1
     3     3     4    1
     4     4     5    1
     5     5     6    1
     6     6     7    1
     7     7     8   am
     8     8     9    2
     9     8    10   am
    10    10    21    1
    11    21    22    1
    12    22    23    1
    13    23    24    1
    14    24    25   ar
    15    25    26   ar
    16    26    27   ar
    17    27    28   ar
    18    28    29   ar
    19    29    30    1
    20    30    31    1
    21     7    11    1
    22    11    12    1
    23     4    13    1
    24    13    14    1
    25    14    15   ar
    26    15    16   ar
    27    16    17   ar
    28    17    18   ar
    29    18    19   ar
    30    19     2    1
    31    12     4    1
    32    19    14   ar
    33    31    21    1
    34    29    24   ar
    35    10    20    1
@<TRIPOS>MOLECULE
*****
 31 35 0 0 0
SMALL
GASTEIGER

@<TRIPOS>ATOM
      1 O          64.7277   96.2175   -2.2596 O.2     1  UNL1       -0.2911
      2 C          63.4581   95.6833   -1.6654 C.2     1  UNL1        0.1795
      3 C          62.1489   95.9177   -2.3588 C.3     1  UNL1        0.1092
      4 C          60.8793   95.3836   -1.7646 C.3     1  UNL1        0.1436
      5 C          59.6098   94.8495   -1.1704 C.3     1  UNL1        0.0620
      6 C          58.3006   95.0839   -1.8637 C.3     1  UNL1        0.0985
      7 N          58.2607   95.8524   -3.1513 N.am    1  UNL1       -0.2640
      8 C          56.9514   96.0868   -3.8447 C.2     1  UNL1        0.3039
      9 O          56.9116   96.8553   -5.1322 O.2     1  UNL1       -0.2526
     10 N          55.6819   95.5527   -3.2505 N.am    1  UNL1       -0.2904
     11 C          59.5302   96.3865   -3.7455 C.3     1  UNL1        0.0985
     12 C          60.8395   96.1521   -3.0521 C.3     1  UNL1        0.0620
     13 O          60.9191   94.6151   -0.4770 O.3     1  UNL1       -0.4819
     14 C          62.2285   94.3807    0.2164 C.ar    1  UNL1        0.1409
     15 C          62.2683   93.6122    1.5039 C.ar    1  UNL1        0.0370
     16 C          63.5776   93.3778    2.1973 C.ar    1  UNL1        0.0031
     17 C          64.8471   93.9119    1.6031 C.ar    1  UNL1        0.0003
     18 C          64.8073   94.6805    0.3155 C.ar    1  UNL1        0.0059
     19 C          63.4980   94.9148   -0.3778 C.ar    1  UNL1        0.0687
     20 H          55.7080   95.0483   -2.4054 H       1  UNL1        0.1509
     21 C          54.3725   95.7871   -3.9438 C.3     1  UNL1        0.0737
     22 C          54.4346   95.8727   -5.4401 C.3     1  UNL1        0.0243
     23 C          53.3136   96.0973   -6.4113 C.3     1  UNL1        0.0277
     24 C          51.8539   96.2916   -6.1260 C.ar    1  UNL1       -0.0261
     25 C          51.0697   96.4857   -7.3899 C.ar    1  UNL1       -0.0046
     26 C          49.5861   96.6976   -7.3269 C.ar    1  UNL1       -0.0003
     27 C          48.8867   96.7154   -6.0001 C.ar    1  UNL1       -0.0003
     28 C          49.6709   96.5213   -4.7362 C.ar    1  UNL1       -0.0046
     29 C          51.1545   96.3094   -4.7992 C.ar    1  UNL1       -0.0261
     30 C          51.7422   96.1373   -3.4298 C.3     1  UNL1        0.0277
     31 C          53.1743   95.9048   -3.0492 C.3     1  UNL1        0.0243
@<TRIPOS>BOND
     1     1     2    2
     2     2     3    1
     3     3     4    1
     4     4     5    1
     5     5     6    1
     6     6     7    1
     7     7     8   am
     8     8     9    2
     9     8    10   am
    10    10    21    1
    11    21    22    1
    12    22    23    1
    13    23    24    1
    14    24    25   ar
    15    25    26   ar
    16    26    27   ar
    17    27    28   ar
    18    28    29   ar
    19    29    30    1
    20    30    31    1
    21     7    11    1
    22    11    12    1
    23     4    13    1
    24    13    14    1
    25    14    15   ar
    26    15    16   ar
    27    16    17   ar
    28    17    18   ar
    29    18    19   ar
    30    19     2    1
    31    12     4    1
    32    19    14   ar
    33    31    21    1
    34    29    24   ar
    35    10    20    1
