@<TRIPOS>MOLECULE
*****
 26 28 0 0 0
SMALL
GASTEIGER

@<TRIPOS>ATOM
      1 C          63.5260   90.9057   11.5036 C.ar    1  UNL1        0.0829
      2 C          63.9436   90.6292   12.9175 C.ar    1  UNL1        0.0205
      3 C          65.0522   91.4242   13.5412 C.ar    1  UNL1        0.0173
      4 C          65.7433   92.4957   12.7509 C.ar    1  UNL1        0.0640
      5 N          66.8519   93.2906   13.3745 N.pl3   1  UNL1       -0.3557
      6 C          65.3256   92.7721   11.3369 C.ar    1  UNL1        0.1474
      7 N          64.2170   91.9771   10.7133 N.ar    1  UNL1       -0.2395
      8 H          67.1260   93.1092   14.3025 H       1  UNL1        0.1424
      9 H          67.3054   93.9938   12.8557 H       1  UNL1        0.1424
     10 C          61.5845   86.6490    8.9472 C.ar    1  UNL1       -0.0001
     11 C          60.1744   86.3618    8.5241 C.ar    1  UNL1        0.0963
     12 N          59.3187   87.5187    8.9477 N.ar    1  UNL1       -0.2273
     13 C          60.2000   88.5208    9.6327 C.ar    1  UNL1        0.1402
     14 N          59.9083   89.8532   10.2567 N.ar    1  UNL1       -0.3374
     15 C          61.0169   90.6482   10.8803 C.ar    1  UNL1        0.0749
     16 C          62.4173   90.1106   10.8799 C.ar    1  UNL1        0.0348
     17 C          62.7090   88.7782   10.2560 C.ar    1  UNL1        0.0057
     18 C          61.6004   87.9832    9.6324 C.ar    1  UNL1        0.0316
     19 H          58.9892   90.2060   10.2569 H       1  UNL1        0.1674
     20 C          62.8210   84.8632    7.5215 C.3     1  UNL1        0.0051
     21 C          62.7706   85.7582    8.7243 C.3     1  UNL1        0.0280
     22 C          66.0166   93.8435   10.5466 C.2     1  UNL1        0.2681
     23 O          65.4289   95.2219   10.4779 O.2     1  UNL1       -0.2682
     24 N          67.2952   93.5365    9.8250 N.am    1  UNL1       -0.2713
     25 C          67.9863   94.6079    9.0346 C.3     1  UNL1        0.1153
     26 C          67.8830   92.1581    9.8936 C.3     1  UNL1        0.1153
@<TRIPOS>BOND
     1    20    21    1
     2    21    10    1
     3    10    11   ar
     4    11    12   ar
     5    12    13   ar
     6    13    14   ar
     7    14    15   ar
     8    15    16   ar
     9    16     1    1
    10     1     2   ar
    11     2     3   ar
    12     3     4   ar
    13     4     5    1
    14     4     6   ar
    15     6    22    1
    16    22    23    2
    17    22    24   am
    18    24    25    1
    19    24    26    1
    20     6     7   ar
    21    16    17   ar
    22    17    18   ar
    23    18    10   ar
    24    18    13    1
    25     7     1   ar
    26    14    19    1
    27     5     8    1
    28     5     9    1
@<TRIPOS>MOLECULE
*****
 26 28 0 0 0
SMALL
GASTEIGER

@<TRIPOS>ATOM
      1 C          63.5282   86.6753   15.2493 C.ar    1  UNL1        0.0829
      2 C          63.0703   87.0628   16.6241 C.ar    1  UNL1        0.0205
      3 C          63.0913   88.5029   17.0435 C.ar    1  UNL1        0.0173
      4 C          63.5701   89.5554   16.0880 C.ar    1  UNL1        0.0640
      5 N          63.5911   90.9954   16.5074 N.pl3   1  UNL1       -0.3557
      6 C          64.0281   89.1679   14.7132 C.ar    1  UNL1        0.1474
      7 N          64.0071   87.7279   14.2938 N.ar    1  UNL1       -0.2395
      8 H          63.2906   91.2498   17.4097 H       1  UNL1        0.1424
      9 H          63.9054   91.6862   15.8803 H       1  UNL1        0.1424
     10 C          63.9893   82.7632   11.6567 C.ar    1  UNL1       -0.0001
     11 C          63.8368   81.2830   11.8457 C.ar    1  UNL1        0.0963
     12 N          63.5130   81.0309   13.2884 N.ar    1  UNL1       -0.2273
     13 C          63.4653   82.3553   13.9911 C.ar    1  UNL1        0.1402
     14 N          63.1919   82.7246   15.4190 N.ar    1  UNL1       -0.3374
     15 C          63.2128   84.1646   15.8383 C.ar    1  UNL1        0.0749
     16 C          63.5073   85.2353   14.8298 C.ar    1  UNL1        0.0348
     17 C          63.7807   84.8659   13.4020 C.ar    1  UNL1        0.0057
     18 C          63.7597   83.4259   12.9827 C.ar    1  UNL1        0.0316
     19 H          62.9986   82.0219   16.0809 H       1  UNL1        0.1674
     20 C          63.3129   84.3830    9.7412 C.3     1  UNL1        0.0051
     21 C          64.3144   83.4587   10.3680 C.3     1  UNL1        0.0280
     22 C          64.5069   90.2204   13.7577 C.2     1  UNL1        0.2681
     23 O          65.7820   90.9604   14.0346 O.2     1  UNL1       -0.2682
     24 N          63.7108   90.5328   12.5255 N.am    1  UNL1       -0.2713
     25 C          64.1897   91.5854   11.5700 C.3     1  UNL1        0.1153
     26 C          62.4357   89.7928   12.2486 C.3     1  UNL1        0.1153
@<TRIPOS>BOND
     1    20    21    1
     2    21    10    1
     3    10    11   ar
     4    11    12   ar
     5    12    13   ar
     6    13    14   ar
     7    14    15   ar
     8    15    16   ar
     9    16     1    1
    10     1     2   ar
    11     2     3   ar
    12     3     4   ar
    13     4     5    1
    14     4     6   ar
    15     6    22    1
    16    22    23    2
    17    22    24   am
    18    24    25    1
    19    24    26    1
    20     6     7   ar
    21    16    17   ar
    22    17    18   ar
    23    18    10   ar
    24    18    13    1
    25     7     1   ar
    26    14    19    1
    27     5     8    1
    28     5     9    1
@<TRIPOS>MOLECULE
*****
 26 28 0 0 0
SMALL
GASTEIGER

@<TRIPOS>ATOM
      1 C          63.5313   86.6566   13.6386 C.ar    1  UNL1        0.0829
      2 C          64.2800   87.5022   14.6256 C.ar    1  UNL1        0.0205
      3 C          64.4431   88.9732   14.3815 C.ar    1  UNL1        0.0173
      4 C          63.8575   89.5986   13.1503 C.ar    1  UNL1        0.0640
      5 N          64.0205   91.0695   12.9062 N.pl3   1  UNL1       -0.3557
      6 C          63.1087   88.7529   12.1632 C.ar    1  UNL1        0.1474
      7 N          62.9457   87.2820   12.4073 N.ar    1  UNL1       -0.2395
      8 H          64.5120   91.6246   13.5540 H       1  UNL1        0.1424
      9 H          63.6362   91.4800   12.0981 H       1  UNL1        0.1424
     10 C          63.1623   81.5844   12.0383 C.ar    1  UNL1       -0.0001
     11 C          62.9759   80.3443   12.8613 C.ar    1  UNL1        0.0963
     12 N          62.9016   80.7518   14.3030 N.ar    1  UNL1       -0.2273
     13 C          63.0420   82.2437   14.3710 C.ar    1  UNL1        0.1402
     14 N          63.0440   83.2000   15.5265 N.ar    1  UNL1       -0.3374
     15 C          63.2071   84.6709   15.2824 C.ar    1  UNL1        0.0749
     16 C          63.3682   85.1856   13.8827 C.ar    1  UNL1        0.0348
     17 C          63.3662   84.2292   12.7271 C.ar    1  UNL1        0.0057
     18 C          63.2031   82.7583   12.9713 C.ar    1  UNL1        0.0316
     19 H          62.9383   82.8622   16.4452 H       1  UNL1        0.1674
     20 C          64.1891   82.6533    9.9044 C.3     1  UNL1        0.0051
     21 C          63.2861   81.6408   10.5445 C.3     1  UNL1        0.0280
     22 C          62.5231   89.3783   10.9320 C.2     1  UNL1        0.2681
     23 O          63.2709   90.4616   10.2128 O.2     1  UNL1       -0.2682
     24 N          61.1896   88.9204   10.4199 N.am    1  UNL1       -0.2713
     25 C          60.6040   89.5458    9.1887 C.3     1  UNL1        0.1153
     26 C          60.4418   87.8371   11.1391 C.3     1  UNL1        0.1153
@<TRIPOS>BOND
     1    20    21    1
     2    21    10    1
     3    10    11   ar
     4    11    12   ar
     5    12    13   ar
     6    13    14   ar
     7    14    15   ar
     8    15    16   ar
     9    16     1    1
    10     1     2   ar
    11     2     3   ar
    12     3     4   ar
    13     4     5    1
    14     4     6   ar
    15     6    22    1
    16    22    23    2
    17    22    24   am
    18    24    25    1
    19    24    26    1
    20     6     7   ar
    21    16    17   ar
    22    17    18   ar
    23    18    10   ar
    24    18    13    1
    25     7     1   ar
    26    14    19    1
    27     5     8    1
    28     5     9    1
@<TRIPOS>MOLECULE
*****
 26 28 0 0 0
SMALL
GASTEIGER

@<TRIPOS>ATOM
      1 C          63.7180   87.6257   13.6270 C.ar    1  UNL1        0.0829
      2 C          63.2130   88.0587   12.2827 C.ar    1  UNL1        0.0205
      3 C          63.1451   89.5178   11.9413 C.ar    1  UNL1        0.0173
      4 C          63.5822   90.5438   12.9444 C.ar    1  UNL1        0.0640
      5 N          63.5143   92.0029   12.6031 N.pl3   1  UNL1       -0.3557
      6 C          64.0873   90.1108   14.2888 C.ar    1  UNL1        0.1474
      7 N          64.1552   88.6517   14.6301 N.ar    1  UNL1       -0.2395
      8 H          63.1828   92.2871   11.7207 H       1  UNL1        0.1424
      9 H          63.8012   92.6763   13.2615 H       1  UNL1        0.1424
     10 C          63.4556   82.4416   12.4101 C.ar    1  UNL1       -0.0001
     11 C          63.6384   81.2503   13.3030 C.ar    1  UNL1        0.0963
     12 N          63.9266   81.7490   14.6880 N.ar    1  UNL1       -0.2273
     13 C          63.9219   83.2485   14.6511 C.ar    1  UNL1        0.1402
     14 N          64.1450   84.2794   15.7176 N.ar    1  UNL1       -0.3374
     15 C          64.0771   85.7385   15.3762 C.ar    1  UNL1        0.0749
     16 C          63.7860   86.1666   13.9684 C.ar    1  UNL1        0.0348
     17 C          63.5628   85.1356   12.9019 C.ar    1  UNL1        0.0057
     18 C          63.6307   83.6766   13.2433 C.ar    1  UNL1        0.0316
     19 H          64.3361   83.9984   16.6416 H       1  UNL1        0.1674
     20 C          64.0803   83.0639    9.9662 C.3     1  UNL1        0.0051
     21 C          63.1510   82.4046   10.9419 C.3     1  UNL1        0.0280
     22 C          64.5244   91.1368   15.2919 C.2     1  UNL1        0.2681
     23 O          63.5908   91.5605   16.3869 O.2     1  UNL1       -0.2682
     24 N          65.8951   91.7391   15.2001 N.am    1  UNL1       -0.2713
     25 C          66.3322   92.7651   16.2032 C.3     1  UNL1        0.1153
     26 C          66.8287   91.3153   14.1051 C.3     1  UNL1        0.1153
@<TRIPOS>BOND
     1    20    21    1
     2    21    10    1
     3    10    11   ar
     4    11    12   ar
     5    12    13   ar
     6    13    14   ar
     7    14    15   ar
     8    15    16   ar
     9    16     1    1
    10     1     2   ar
    11     2     3   ar
    12     3     4   ar
    13     4     5    1
    14     4     6   ar
    15     6    22    1
    16    22    23    2
    17    22    24   am
    18    24    25    1
    19    24    26    1
    20     6     7   ar
    21    16    17   ar
    22    17    18   ar
    23    18    10   ar
    24    18    13    1
    25     7     1   ar
    26    14    19    1
    27     5     8    1
    28     5     9    1
@<TRIPOS>MOLECULE
*****
 26 28 0 0 0
SMALL
GASTEIGER

@<TRIPOS>ATOM
      1 C          63.9562   88.7726   14.8447 C.ar    1  UNL1        0.0829
      2 C          63.3782   88.9578   16.2164 C.ar    1  UNL1        0.0205
      3 C          62.9905   87.7619   17.0347 C.ar    1  UNL1        0.0173
      4 C          63.1808   86.3808   16.4812 C.ar    1  UNL1        0.0640
      5 N          62.7932   85.1849   17.2994 N.pl3   1  UNL1       -0.3557
      6 C          63.7589   86.1956   15.1094 C.ar    1  UNL1        0.1474
      7 N          64.1465   87.3915   14.2912 N.ar    1  UNL1       -0.2395
      8 H          62.4138   85.3065   18.1997 H       1  UNL1        0.1424
      9 H          62.9181   84.2785   16.9361 H       1  UNL1        0.1424
     10 C          66.6578   93.2939   14.0182 C.ar    1  UNL1       -0.0001
     11 C          66.6397   94.2015   12.8241 C.ar    1  UNL1        0.0963
     12 N          65.6888   93.6245   11.8177 N.ar    1  UNL1       -0.2273
     13 C          65.1192   92.3602   12.3898 C.ar    1  UNL1        0.1402
     14 N          64.1327   91.3687   11.8481 N.ar    1  UNL1       -0.3374
     15 C          63.7450   90.1728   12.6664 C.ar    1  UNL1        0.0749
     16 C          64.3439   89.9685   14.0264 C.ar    1  UNL1        0.0348
     17 C          65.3305   90.9601   14.5681 C.ar    1  UNL1        0.0057
     18 C          65.7181   92.1559   13.7498 C.ar    1  UNL1        0.0316
     19 H          63.7396   91.5028   10.9555 H       1  UNL1        0.1674
     20 C          68.5088   92.4760   15.6476 C.3     1  UNL1        0.0051
     21 C          67.4726   93.4899   15.2623 C.3     1  UNL1        0.0280
     22 C          63.9492   84.8145   14.5559 C.2     1  UNL1        0.2681
     23 O          64.6305   83.7632   15.3810 O.2     1  UNL1       -0.2682
     24 N          63.4582   84.4847   13.1775 N.am    1  UNL1       -0.2713
     25 C          63.6485   83.1036   12.6240 C.3     1  UNL1        0.1153
     26 C          62.7768   85.5360   12.3525 C.3     1  UNL1        0.1153
@<TRIPOS>BOND
     1    20    21    1
     2    21    10    1
     3    10    11   ar
     4    11    12   ar
     5    12    13   ar
     6    13    14   ar
     7    14    15   ar
     8    15    16   ar
     9    16     1    1
    10     1     2   ar
    11     2     3   ar
    12     3     4   ar
    13     4     5    1
    14     4     6   ar
    15     6    22    1
    16    22    23    2
    17    22    24   am
    18    24    25    1
    19    24    26    1
    20     6     7   ar
    21    16    17   ar
    22    17    18   ar
    23    18    10   ar
    24    18    13    1
    25     7     1   ar
    26    14    19    1
    27     5     8    1
    28     5     9    1
@<TRIPOS>MOLECULE
*****
 26 28 0 0 0
SMALL
GASTEIGER

@<TRIPOS>ATOM
      1 C          64.4840   89.7560   14.1517 C.ar    1  UNL1        0.0829
      2 C          63.6201   90.3909   13.1026 C.ar    1  UNL1        0.0205
      3 C          64.0995   91.6115   12.3743 C.ar    1  UNL1        0.0173
      4 C          65.4427   92.1971   12.6950 C.ar    1  UNL1        0.0640
      5 N          65.9220   93.4177   11.9668 N.pl3   1  UNL1       -0.3557
      6 C          66.3065   91.5621   13.7441 C.ar    1  UNL1        0.1474
      7 N          65.8272   90.3415   14.4724 N.ar    1  UNL1       -0.2395
      8 H          65.3550   93.8344   11.2782 H       1  UNL1        0.1424
      9 H          66.8036   93.8020   12.1773 H       1  UNL1        0.1424
     10 C          63.8140   84.4935   14.6820 C.ar    1  UNL1       -0.0001
     11 C          63.1616   83.7309   15.7967 C.ar    1  UNL1        0.0963
     12 N          62.6869   84.7202   16.8194 N.ar    1  UNL1       -0.2273
     13 C          63.0460   86.0943   16.3367 C.ar    1  UNL1        0.1402
     14 N          62.8287   87.4550   16.9294 N.ar    1  UNL1       -0.3374
     15 C          63.3081   88.6755   16.2010 C.ar    1  UNL1        0.0749
     16 C          64.0047   88.5353   14.8800 C.ar    1  UNL1        0.0348
     17 C          64.2220   87.1747   14.2873 C.ar    1  UNL1        0.0057
     18 C          63.7427   85.9541   15.0157 C.ar    1  UNL1        0.0316
     19 H          62.3715   87.5469   17.7964 H       1  UNL1        0.1674
     20 C          63.6281   83.7958   12.1862 C.3     1  UNL1        0.0051
     21 C          64.4298   83.8997   13.4498 C.3     1  UNL1        0.0280
     22 C          67.6498   92.1477   14.0649 C.2     1  UNL1        0.2681
     23 O          68.7701   92.0424   13.0729 O.2     1  UNL1       -0.2682
     24 N          67.8727   92.8385   15.3775 N.am    1  UNL1       -0.2713
     25 C          69.2159   93.4241   15.6982 C.3     1  UNL1        0.1153
     26 C          66.7524   92.9437   16.3695 C.3     1  UNL1        0.1153
@<TRIPOS>BOND
     1    20    21    1
     2    21    10    1
     3    10    11   ar
     4    11    12   ar
     5    12    13   ar
     6    13    14   ar
     7    14    15   ar
     8    15    16   ar
     9    16     1    1
    10     1     2   ar
    11     2     3   ar
    12     3     4   ar
    13     4     5    1
    14     4     6   ar
    15     6    22    1
    16    22    23    2
    17    22    24   am
    18    24    25    1
    19    24    26    1
    20     6     7   ar
    21    16    17   ar
    22    17    18   ar
    23    18    10   ar
    24    18    13    1
    25     7     1   ar
    26    14    19    1
    27     5     8    1
    28     5     9    1
@<TRIPOS>MOLECULE
*****
 26 28 0 0 0
SMALL
GASTEIGER

@<TRIPOS>ATOM
      1 C          62.7877   87.3240   12.3440 C.ar    1  UNL1        0.0829
      2 C          63.6845   88.1277   13.2381 C.ar    1  UNL1        0.0205
      3 C          64.4375   87.4539   14.3468 C.ar    1  UNL1        0.0173
      4 C          64.2935   85.9763   14.5613 C.ar    1  UNL1        0.0640
      5 N          65.0465   85.3025   15.6698 N.pl3   1  UNL1       -0.3557
      6 C          63.3966   85.1725   13.6670 C.ar    1  UNL1        0.1474
      7 N          62.6437   85.8464   12.5584 N.ar    1  UNL1       -0.2395
      8 H          65.6351   85.8300   16.2567 H       1  UNL1        0.1424
      9 H          64.9520   84.3327   15.8106 H       1  UNL1        0.1424
     10 C          59.9615   87.3105    7.8233 C.ar    1  UNL1       -0.0001
     11 C          59.3849   88.4692    7.0651 C.ar    1  UNL1        0.0963
     12 N          59.7355   89.7269    7.8036 N.ar    1  UNL1       -0.2273
     13 C          60.5288   89.3454    9.0182 C.ar    1  UNL1        0.1402
     14 N          61.1420   90.1650   10.1146 N.ar    1  UNL1       -0.3374
     15 C          61.8950   89.4912   11.2232 C.ar    1  UNL1        0.0749
     16 C          62.0347   87.9978   11.2353 C.ar    1  UNL1        0.0348
     17 C          61.4215   87.1782   10.1389 C.ar    1  UNL1        0.0057
     18 C          60.6685   87.8520    9.0303 C.ar    1  UNL1        0.0316
     19 H          61.0504   91.1452   10.1066 H       1  UNL1        0.1674
     20 C          61.0735   85.1034    7.0218 C.3     1  UNL1        0.0051
     21 C          59.8507   85.8641    7.4415 C.3     1  UNL1        0.0280
     22 C          63.2527   83.6949   13.8815 C.2     1  UNL1        0.2681
     23 O          62.6095   83.1780   15.1342 O.2     1  UNL1       -0.2682
     24 N          63.7518   82.7343   12.8433 N.am    1  UNL1       -0.2713
     25 C          63.6079   81.2567   13.0577 C.3     1  UNL1        0.1153
     26 C          64.3950   83.2511   11.5906 C.3     1  UNL1        0.1153
@<TRIPOS>BOND
     1    20    21    1
     2    21    10    1
     3    10    11   ar
     4    11    12   ar
     5    12    13   ar
     6    13    14   ar
     7    14    15   ar
     8    15    16   ar
     9    16     1    1
    10     1     2   ar
    11     2     3   ar
    12     3     4   ar
    13     4     5    1
    14     4     6   ar
    15     6    22    1
    16    22    23    2
    17    22    24   am
    18    24    25    1
    19    24    26    1
    20     6     7   ar
    21    16    17   ar
    22    17    18   ar
    23    18    10   ar
    24    18    13    1
    25     7     1   ar
    26    14    19    1
    27     5     8    1
    28     5     9    1
@<TRIPOS>MOLECULE
*****
 26 28 0 0 0
SMALL
GASTEIGER

@<TRIPOS>ATOM
      1 C          62.3353   89.4097   11.7229 C.ar    1  UNL1        0.0829
      2 C          60.9985   89.9414   11.2982 C.ar    1  UNL1        0.0205
      3 C          60.1152   89.1224   10.4042 C.ar    1  UNL1        0.0173
      4 C          60.5687   87.7718    9.9350 C.ar    1  UNL1        0.0640
      5 N          59.6855   86.9528    9.0411 N.pl3   1  UNL1       -0.3557
      6 C          61.9056   87.2402   10.3598 C.ar    1  UNL1        0.1474
      7 N          62.7888   88.0591   11.2537 N.ar    1  UNL1       -0.2395
      8 H          58.8081   87.3018    8.7623 H       1  UNL1        0.1424
      9 H          59.9832   86.0664    8.7331 H       1  UNL1        0.1424
     10 C          66.0179   93.1572   12.6278 C.ar    1  UNL1       -0.0001
     11 C          66.6015   93.6141   13.9319 C.ar    1  UNL1        0.0963
     12 N          65.9632   92.8164   15.0302 N.ar    1  UNL1       -0.2273
     13 C          64.9850   91.8665   14.4049 C.ar    1  UNL1        0.1402
     14 N          64.0680   90.8370   14.9957 N.ar    1  UNL1       -0.3374
     15 C          63.1847   90.0181   14.1017 C.ar    1  UNL1        0.0749
     16 C          63.2186   90.2287   12.6169 C.ar    1  UNL1        0.0348
     17 C          64.1356   91.2582   12.0262 C.ar    1  UNL1        0.0057
     18 C          65.0189   92.0771   12.9201 C.ar    1  UNL1        0.0316
     19 H          64.0458   90.6988   15.9702 H       1  UNL1        0.1674
     20 C          67.1332   92.8284   10.3044 C.3     1  UNL1        0.0051
     21 C          66.3712   93.6872   11.2698 C.3     1  UNL1        0.0280
     22 C          62.3591   85.8895    9.8906 C.2     1  UNL1        0.2681
     23 O          62.3882   85.5759    8.4239 O.2     1  UNL1       -0.2682
     24 N          62.7834   84.8526   10.8878 N.am    1  UNL1       -0.2713
     25 C          63.2370   83.5020   10.4186 C.3     1  UNL1        0.1153
     26 C          62.7543   85.1662   12.3544 C.3     1  UNL1        0.1153
@<TRIPOS>BOND
     1    20    21    1
     2    21    10    1
     3    10    11   ar
     4    11    12   ar
     5    12    13   ar
     6    13    14   ar
     7    14    15   ar
     8    15    16   ar
     9    16     1    1
    10     1     2   ar
    11     2     3   ar
    12     3     4   ar
    13     4     5    1
    14     4     6   ar
    15     6    22    1
    16    22    23    2
    17    22    24   am
    18    24    25    1
    19    24    26    1
    20     6     7   ar
    21    16    17   ar
    22    17    18   ar
    23    18    10   ar
    24    18    13    1
    25     7     1   ar
    26    14    19    1
    27     5     8    1
    28     5     9    1
@<TRIPOS>MOLECULE
*****
 26 28 0 0 0
SMALL
GASTEIGER

@<TRIPOS>ATOM
      1 C          62.9585   86.6626   12.4548 C.ar    1  UNL1        0.0829
      2 C          62.2621   86.9301   11.1535 C.ar    1  UNL1        0.0205
      3 C          62.1841   88.3293   10.6184 C.ar    1  UNL1        0.0173
      4 C          62.8024   89.4609   11.3847 C.ar    1  UNL1        0.0640
      5 N          62.7243   90.8600   10.8497 N.pl3   1  UNL1       -0.3557
      6 C          63.4987   89.1933   12.6861 C.ar    1  UNL1        0.1474
      7 N          63.5767   87.7942   13.2211 N.ar    1  UNL1       -0.2395
      8 H          62.2673   91.0357    9.9956 H       1  UNL1        0.1424
      9 H          63.1301   91.6027   11.3527 H       1  UNL1        0.1424
     10 C          63.0382   81.3602   11.9046 C.ar    1  UNL1       -0.0001
     11 C          63.1519   80.3015   12.9611 C.ar    1  UNL1        0.0963
     12 N          63.2474   80.9844   14.2932 N.ar    1  UNL1       -0.2273
     13 C          63.1927   82.4652   14.0600 C.ar    1  UNL1        0.1402
     14 N          63.2439   83.6320   15.0012 N.ar    1  UNL1       -0.3374
     15 C          63.1658   85.0311   14.4661 C.ar    1  UNL1        0.0749
     16 C          63.0365   85.2634   12.9899 C.ar    1  UNL1        0.0348
     17 C          62.9853   84.0965   12.0487 C.ar    1  UNL1        0.0057
     18 C          63.0634   82.6974   12.5838 C.ar    1  UNL1        0.0316
     19 H          63.3287   83.4796   15.9701 H       1  UNL1        0.1674
     20 C          62.8582   79.7222    9.8959 C.3     1  UNL1        0.0051
     21 C          62.9200   81.1234   10.4282 C.3     1  UNL1        0.0280
     22 C          64.1170   90.3249   13.4524 C.2     1  UNL1        0.2681
     23 O          64.8925   91.3855   12.7286 O.2     1  UNL1       -0.2682
     24 N          63.9598   90.3959   14.9424 N.am    1  UNL1       -0.2713
     25 C          64.5780   91.5275   15.7088 C.3     1  UNL1        0.1153
     26 C          63.1842   89.3353   15.6662 C.3     1  UNL1        0.1153
@<TRIPOS>BOND
     1    20    21    1
     2    21    10    1
     3    10    11   ar
     4    11    12   ar
     5    12    13   ar
     6    13    14   ar
     7    14    15   ar
     8    15    16   ar
     9    16     1    1
    10     1     2   ar
    11     2     3   ar
    12     3     4   ar
    13     4     5    1
    14     4     6   ar
    15     6    22    1
    16    22    23    2
    17    22    24   am
    18    24    25    1
    19    24    26    1
    20     6     7   ar
    21    16    17   ar
    22    17    18   ar
    23    18    10   ar
    24    18    13    1
    25     7     1   ar
    26    14    19    1
    27     5     8    1
    28     5     9    1
