@<TRIPOS>MOLECULE
*****
 34 38 0 0 0
SMALL
GASTEIGER

@<TRIPOS>ATOM
      1 C          59.1360   87.0354    8.0538 C.3     1  UNL1        0.0339
      2 C          59.9066   87.6963    9.1580 C.3     1  UNL1        0.1351
      3 C          60.9146   86.9109    9.9435 C.3     1  UNL1        0.1231
      4 N          61.6852   87.5719   11.0477 N.am    1  UNL1       -0.2724
      5 C          62.6933   86.7864   11.8332 C.2     1  UNL1        0.2506
      6 O          63.4639   87.4474   12.9374 O.2     1  UNL1       -0.2699
      7 C          61.4479   89.0183   11.3664 C.3     1  UNL1        0.1096
      8 C          60.4399   89.8037   10.5809 C.3     1  UNL1        0.1621
      9 O          59.6693   89.1427    9.4767 O.3     1  UNL1       -0.3527
     10 C          62.9306   85.3400   11.5146 C.ar    1  UNL1        0.0730
     11 C          62.9835   84.8857   10.0860 C.ar    1  UNL1        0.0070
     12 C          63.2208   83.4392    9.7674 C.ar    1  UNL1        0.0116
     13 C          63.4053   82.4472   10.8773 C.ar    1  UNL1        0.0592
     14 CL         63.6426   81.0008   10.5586 Cl      1  UNL1       -0.0822
     15 C          63.3523   82.9016   12.3058 C.ar    1  UNL1        0.0324
     16 C          63.1150   84.3479   12.6245 C.ar    1  UNL1        0.1081
     17 N          63.0621   84.8023   14.0530 N.ar    1  UNL1       -0.1476
     18 N          64.1995   85.3917   14.8335 N.ar    1  UNL1       -0.1447
     19 C          63.7028   85.7007   16.2148 C.ar    1  UNL1        0.1446
     20 C          62.2585   85.3024   16.2880 C.ar    1  UNL1        0.1446
     21 N          61.8626   84.7472   14.9519 N.ar    1  UNL1       -0.1447
     22 C          62.2186   89.6793   12.4706 C.3     1  UNL1        0.0487
     23 C          63.3442   90.6152   12.1435 C.ar    1  UNL1       -0.0203
     24 C          63.4426   91.2207   10.7747 C.ar    1  UNL1       -0.0042
     25 C          64.5682   92.1566   10.4477 C.ar    1  UNL1       -0.0002
     26 C          65.5956   92.4870   11.4895 C.ar    1  UNL1        0.0030
     27 C          65.4973   91.8815   12.8583 C.ar    1  UNL1        0.0355
     28 C          64.3716   90.9456   13.1853 C.ar    1  UNL1       -0.0012
     29 C          66.5247   92.2119   13.9001 C.ar    1  UNL1        0.1622
     30 N          67.9808   92.2242   13.5401 N.ar    1  UNL1       -0.2250
     31 C          69.0081   92.5546   14.5819 C.ar    1  UNL1        0.1022
     32 C          68.5794   92.8727   15.9837 C.ar    1  UNL1        0.0414
     33 C          67.1233   92.8603   16.3437 C.ar    1  UNL1        0.1022
     34 N          66.0959   92.5299   15.3019 N.ar    1  UNL1       -0.2250
@<TRIPOS>BOND
     1     2     1    1
     2     2     3    1
     3     3     4    1
     4     4     5   am
     5     5     6    2
     6     5    10    1
     7    10    11   ar
     8    11    12   ar
     9    12    13   ar
    10    13    14    1
    11    13    15   ar
    12    15    16   ar
    13    16    17    1
    14    17    18   ar
    15    18    19   ar
    16    19    20   ar
    17    20    21   ar
    18     4     7    1
    19     7    22    1
    20    22    23    1
    21    23    24   ar
    22    24    25   ar
    23    25    26   ar
    24    26    27   ar
    25    27    29    1
    26    29    30   ar
    27    30    31   ar
    28    31    32   ar
    29    32    33   ar
    30    33    34   ar
    31    27    28   ar
    32     7     8    1
    33     8     9    1
    34     9     2    1
    35    16    10   ar
    36    21    17   ar
    37    28    23   ar
    38    34    29   ar
@<TRIPOS>MOLECULE
*****
 34 38 0 0 0
SMALL
GASTEIGER

@<TRIPOS>ATOM
      1 C          62.8244   86.4748   18.3190 C.3     1  UNL1        0.0339
      2 C          63.0410   87.4938   17.2398 C.3     1  UNL1        0.1351
      3 C          63.1721   87.0567   15.8109 C.3     1  UNL1        0.1231
      4 N          63.3887   88.0758   14.7318 N.am    1  UNL1       -0.2724
      5 C          63.5198   87.6386   13.3028 C.2     1  UNL1        0.2506
      6 O          63.7364   88.6576   12.2236 O.2     1  UNL1       -0.2699
      7 C          63.4741   89.5319   15.0814 C.3     1  UNL1        0.1096
      8 C          63.3429   89.9690   16.5103 C.3     1  UNL1        0.1621
      9 O          63.1264   88.9500   17.5895 O.3     1  UNL1       -0.3527
     10 C          63.4344   86.1825   12.9532 C.ar    1  UNL1        0.0730
     11 C          64.2279   85.1761   13.7327 C.ar    1  UNL1        0.0070
     12 C          64.1425   83.7199   13.3830 C.ar    1  UNL1        0.0116
     13 C          63.2636   83.2701   12.2538 C.ar    1  UNL1        0.0592
     14 CL         63.1782   81.8140   11.9041 Cl      1  UNL1       -0.0822
     15 C          62.4701   84.2764   11.4742 C.ar    1  UNL1        0.0324
     16 C          62.5555   85.7326   11.8239 C.ar    1  UNL1        0.1081
     17 N          61.7620   86.7389   11.0444 N.ar    1  UNL1       -0.1476
     18 N          60.5725   87.5033   11.5453 N.ar    1  UNL1       -0.1447
     19 C          60.0941   88.3943   10.4375 C.ar    1  UNL1        0.1446
     20 C          60.9878   88.1806    9.2520 C.ar    1  UNL1        0.1446
     21 N          62.0186   87.1575    9.6270 N.ar    1  UNL1       -0.1447
     22 C          63.6906   90.5509   14.0022 C.3     1  UNL1        0.0487
     23 C          65.0309   91.2066   13.8478 C.ar    1  UNL1       -0.0203
     24 C          66.0866   91.0112   14.8954 C.ar    1  UNL1       -0.0042
     25 C          67.4268   91.6668   14.7410 C.ar    1  UNL1       -0.0002
     26 C          67.7114   92.5179   13.5390 C.ar    1  UNL1        0.0030
     27 C          66.6558   92.7133   12.4914 C.ar    1  UNL1        0.0355
     28 C          65.3155   92.0576   12.6458 C.ar    1  UNL1       -0.0012
     29 C          66.9404   93.5643   11.2895 C.ar    1  UNL1        0.1622
     30 N          66.5441   95.0110   11.2839 N.ar    1  UNL1       -0.2250
     31 C          66.8287   95.8620   10.0820 C.ar    1  UNL1        0.1022
     32 C          67.5096   95.2664    8.8855 C.ar    1  UNL1        0.0414
     33 C          67.9059   93.8196    8.8910 C.ar    1  UNL1        0.1022
     34 N          67.6213   92.9686   10.0930 N.ar    1  UNL1       -0.2250
@<TRIPOS>BOND
     1     2     1    1
     2     2     3    1
     3     3     4    1
     4     4     5   am
     5     5     6    2
     6     5    10    1
     7    10    11   ar
     8    11    12   ar
     9    12    13   ar
    10    13    14    1
    11    13    15   ar
    12    15    16   ar
    13    16    17    1
    14    17    18   ar
    15    18    19   ar
    16    19    20   ar
    17    20    21   ar
    18     4     7    1
    19     7    22    1
    20    22    23    1
    21    23    24   ar
    22    24    25   ar
    23    25    26   ar
    24    26    27   ar
    25    27    29    1
    26    29    30   ar
    27    30    31   ar
    28    31    32   ar
    29    32    33   ar
    30    33    34   ar
    31    27    28   ar
    32     7     8    1
    33     8     9    1
    34     9     2    1
    35    16    10   ar
    36    21    17   ar
    37    28    23   ar
    38    34    29   ar
@<TRIPOS>MOLECULE
*****
 34 38 0 0 0
SMALL
GASTEIGER

@<TRIPOS>ATOM
      1 C          60.4179   88.4356    8.3871 C.3     1  UNL1        0.0339
      2 C          61.1003   88.8452    9.6585 C.3     1  UNL1        0.1351
      3 C          61.7748   87.8139   10.5136 C.3     1  UNL1        0.1231
      4 N          62.4572   88.2235   11.7851 N.am    1  UNL1       -0.2724
      5 C          63.1317   87.1921   12.6402 C.2     1  UNL1        0.2506
      6 O          63.8141   87.6018   13.9116 O.2     1  UNL1       -0.2699
      7 C          62.4650   89.6646   12.2014 C.3     1  UNL1        0.1096
      8 C          61.7905   90.6959   11.3463 C.3     1  UNL1        0.1621
      9 O          61.1081   90.2862   10.0748 O.3     1  UNL1       -0.3527
     10 C          63.1239   85.7511   12.2239 C.ar    1  UNL1        0.0730
     11 C          63.1657   85.3906   10.7684 C.ar    1  UNL1        0.0070
     12 C          63.1578   83.9495   10.3521 C.ar    1  UNL1        0.0116
     13 C          63.1082   82.8690   11.3913 C.ar    1  UNL1        0.0592
     14 CL         63.1003   81.4279   10.9750 Cl      1  UNL1       -0.0822
     15 C          63.0664   83.2294   12.8467 C.ar    1  UNL1        0.0324
     16 C          63.0743   84.6704   13.2630 C.ar    1  UNL1        0.1081
     17 N          63.0325   85.0309   14.7185 N.ar    1  UNL1       -0.1476
     18 N          61.7970   85.1632   15.5589 N.ar    1  UNL1       -0.1447
     19 C          62.2198   85.5364   16.9489 C.ar    1  UNL1        0.1446
     20 C          63.7165   85.6347   16.9675 C.ar    1  UNL1        0.1446
     21 N          64.2187   85.3223   15.5891 N.ar    1  UNL1       -0.1447
     22 C          63.1474   90.0742   13.4728 C.3     1  UNL1        0.0487
     23 C          64.4619   90.7948   13.4200 C.ar    1  UNL1       -0.0203
     24 C          65.4651   90.6067   14.5192 C.ar    1  UNL1       -0.0042
     25 C          66.7796   91.3273   14.4663 C.ar    1  UNL1       -0.0002
     26 C          67.0909   92.2361   13.3143 C.ar    1  UNL1        0.0030
     27 C          66.0877   92.4243   12.2151 C.ar    1  UNL1        0.0355
     28 C          64.7732   91.7037   12.2679 C.ar    1  UNL1       -0.0012
     29 C          66.3991   93.3332   11.0631 C.ar    1  UNL1        0.1622
     30 N          65.6241   94.6043   10.8800 N.ar    1  UNL1       -0.2250
     31 C          65.9354   95.5131    9.7280 C.ar    1  UNL1        0.1022
     32 C          67.0217   95.1508    8.7591 C.ar    1  UNL1        0.0414
     33 C          67.7967   93.8796    8.9423 C.ar    1  UNL1        0.1022
     34 N          67.4854   92.9708   10.0943 N.ar    1  UNL1       -0.2250
@<TRIPOS>BOND
     1     2     1    1
     2     2     3    1
     3     3     4    1
     4     4     5   am
     5     5     6    2
     6     5    10    1
     7    10    11   ar
     8    11    12   ar
     9    12    13   ar
    10    13    14    1
    11    13    15   ar
    12    15    16   ar
    13    16    17    1
    14    17    18   ar
    15    18    19   ar
    16    19    20   ar
    17    20    21   ar
    18     4     7    1
    19     7    22    1
    20    22    23    1
    21    23    24   ar
    22    24    25   ar
    23    25    26   ar
    24    26    27   ar
    25    27    29    1
    26    29    30   ar
    27    30    31   ar
    28    31    32   ar
    29    32    33   ar
    30    33    34   ar
    31    27    28   ar
    32     7     8    1
    33     8     9    1
    34     9     2    1
    35    16    10   ar
    36    21    17   ar
    37    28    23   ar
    38    34    29   ar
@<TRIPOS>MOLECULE
*****
 34 38 0 0 0
SMALL
GASTEIGER

@<TRIPOS>ATOM
      1 C          64.1475   84.0483   13.8191 C.3     1  UNL1        0.0339
      2 C          64.0928   85.5473   13.8285 C.3     1  UNL1        0.1351
      3 C          63.4175   86.2802   12.7074 C.3     1  UNL1        0.1231
      4 N          63.3628   87.7791   12.7168 N.am    1  UNL1       -0.2724
      5 C          62.6874   88.5120   11.5957 C.2     1  UNL1        0.2506
      6 O          62.6327   90.0110   11.6051 O.2     1  UNL1       -0.2699
      7 C          63.9834   88.5452   13.8472 C.3     1  UNL1        0.1096
      8 C          64.6587   87.8124   14.9683 C.3     1  UNL1        0.1621
      9 O          64.7134   86.3134   14.9589 O.3     1  UNL1       -0.3527
     10 C          62.0668   87.7459   10.4653 C.ar    1  UNL1        0.0730
     11 C          62.8865   86.7577    9.6898 C.ar    1  UNL1        0.0070
     12 C          62.2658   85.9915    8.5593 C.ar    1  UNL1        0.0116
     13 C          60.8255   86.2137    8.2044 C.ar    1  UNL1        0.0592
     14 CL         60.2049   85.4476    7.0740 Cl      1  UNL1       -0.0822
     15 C          60.0058   87.2020    8.9799 C.ar    1  UNL1        0.0324
     16 C          60.6264   87.9681   10.1103 C.ar    1  UNL1        0.1081
     17 N          59.8067   88.9564   10.8858 N.ar    1  UNL1       -0.1476
     18 N          59.5950   90.3982   10.5300 N.ar    1  UNL1       -0.1447
     19 C          58.7122   91.0092   11.5776 C.ar    1  UNL1        0.1446
     20 C          58.3783   89.9452   12.5807 C.ar    1  UNL1        0.1446
     21 N          59.0547   88.6764   12.1531 N.ar    1  UNL1       -0.1447
     22 C          63.9287   90.0442   13.8566 C.3     1  UNL1        0.0487
     23 C          65.1977   90.8414   13.7937 C.ar    1  UNL1       -0.0203
     24 C          66.1615   90.8092   14.9426 C.ar    1  UNL1       -0.0042
     25 C          67.4305   91.6064   14.8797 C.ar    1  UNL1       -0.0002
     26 C          67.7358   92.4359   13.6678 C.ar    1  UNL1        0.0030
     27 C          66.7721   92.4682   12.5188 C.ar    1  UNL1        0.0355
     28 C          65.5030   91.6709   12.5817 C.ar    1  UNL1       -0.0012
     29 C          67.0774   93.2977   11.3069 C.ar    1  UNL1        0.1622
     30 N          67.8128   92.6912   10.1488 N.ar    1  UNL1       -0.2250
     31 C          68.1181   93.5207    8.9369 C.ar    1  UNL1        0.1022
     32 C          67.6879   94.9567    8.8831 C.ar    1  UNL1        0.0414
     33 C          66.9525   95.5632   10.0413 C.ar    1  UNL1        0.1022
     34 N          66.6472   94.7337   11.2532 N.ar    1  UNL1       -0.2250
@<TRIPOS>BOND
     1     2     1    1
     2     2     3    1
     3     3     4    1
     4     4     5   am
     5     5     6    2
     6     5    10    1
     7    10    11   ar
     8    11    12   ar
     9    12    13   ar
    10    13    14    1
    11    13    15   ar
    12    15    16   ar
    13    16    17    1
    14    17    18   ar
    15    18    19   ar
    16    19    20   ar
    17    20    21   ar
    18     4     7    1
    19     7    22    1
    20    22    23    1
    21    23    24   ar
    22    24    25   ar
    23    25    26   ar
    24    26    27   ar
    25    27    29    1
    26    29    30   ar
    27    30    31   ar
    28    31    32   ar
    29    32    33   ar
    30    33    34   ar
    31    27    28   ar
    32     7     8    1
    33     8     9    1
    34     9     2    1
    35    16    10   ar
    36    21    17   ar
    37    28    23   ar
    38    34    29   ar
