@<TRIPOS>MOLECULE
*****
 39 41 0 0 0
SMALL
GASTEIGER

@<TRIPOS>ATOM
      1 O          62.6605   86.3534   12.6821 O.3     1  UNL1       -0.2709
      2 P          62.9777   85.0076   12.1005 P.3     1  UNL1        0.4634
      3 O          64.1831   84.9082   12.9877 O.2     1  UNL1       -0.2281
      4 N          61.7723   85.1070   11.2132 N.3     1  UNL1       -0.1929
      5 H          61.6167   84.1777   10.8226 H       1  UNL1        0.1358
      6 C          61.7661   86.0675   10.0612 C.3     1  UNL1        0.1635
      7 C          62.6264   85.8045    8.8608 C.3     1  UNL1        0.0296
      8 C          60.8997   87.2911   10.1094 C.2     1  UNL1        0.3317
      9 O          60.0986   87.5947   11.3406 O.2     1  UNL1       -0.2486
     10 O          60.8345   88.2110    8.9263 O.3     1  UNL1       -0.4514
     11 C          59.3930   89.2039    7.0064 C.3     1  UNL1        0.0473
     12 C          59.7293   88.0650    7.9229 C.3     1  UNL1        0.1691
     13 C          58.9602   86.7802    7.8358 C.3     1  UNL1        0.0473
     14 O          63.2949   83.6619   11.5188 O.3     1  UNL1       -0.4115
     15 C          62.8492   82.4158   12.2248 C.ar    1  UNL1        0.1479
     16 C          62.2124   82.5083   13.5797 C.ar    1  UNL1        0.0374
     17 C          61.7667   81.2622   14.2857 C.ar    1  UNL1        0.0031
     18 C          61.9578   79.9234   13.6367 C.ar    1  UNL1        0.0002
     19 C          62.5946   79.8308   12.2818 C.ar    1  UNL1        0.0031
     20 C          63.0403   81.0770   11.5758 C.ar    1  UNL1        0.0374
     21 C          63.5420   86.9372   13.7461 C.3     1  UNL1        0.1857
     22 C          63.9715   88.3719   13.6604 C.3     1  UNL1        0.1782
     23 O          65.0207   89.0301   14.5064 O.3     1  UNL1       -0.3297
     24 C          65.1248   90.4652   14.0825 C.3     1  UNL1        0.2564
     25 C          64.1399   90.6939   12.9745 C.3     1  UNL1        0.2707
     26 F          64.6700   92.0968   13.0051 F       1  UNL1       -0.2161
     27 CL         63.2657   91.2159   11.8729 Cl      1  UNL1       -0.0736
     28 C          63.4270   89.4002   12.7136 C.3     1  UNL1        0.1891
     29 O          62.3576   89.1743   11.6864 O.3     1  UNL1       -0.3782
     30 H          62.0636   88.2507   11.7234 H       1  UNL1        0.2106
     31 N          66.0513   91.4915   14.6644 N.ar    1  UNL1       -0.2539
     32 C          67.4003   91.7188   14.0492 C.ar    1  UNL1        0.0869
     33 C          68.3266   92.7450   14.6311 C.ar    1  UNL1        0.0795
     34 C          67.9039   93.5440   15.8282 C.ar    1  UNL1        0.2626
     35 O          68.8303   94.5703   16.4101 O.2     1  UNL1       -0.2670
     36 N          66.5549   93.3168   16.4433 N.ar    1  UNL1       -0.2743
     37 C          65.6286   92.2905   15.8614 C.ar    1  UNL1        0.3323
     38 O          64.2795   92.0632   16.4766 O.2     1  UNL1       -0.2464
     39 H          66.2775   93.8412   17.2290 H       1  UNL1        0.1734
@<TRIPOS>BOND
     1    11    12    1
     2    12    13    1
     3    12    10    1
     4    10     8    1
     5     8     9    2
     6     8     6    1
     7     6     7    1
     8     6     4    1
     9     4     2    1
    10     2     3    2
    11     2     1    1
    12     1    21    1
    13    22    21    1
    14    22    23    1
    15    23    24    1
    16    24    31    1
    17    31    32   ar
    18    32    33   ar
    19    33    34   ar
    20    34    35    2
    21    34    36   ar
    22    36    37   ar
    23    37    38    2
    24    24    25    1
    25    25    26    1
    26    25    27    1
    27    25    28    1
    28    28    29    1
    29     2    14    1
    30    14    15    1
    31    15    16   ar
    32    16    17   ar
    33    17    18   ar
    34    18    19   ar
    35    19    20   ar
    36    28    22    1
    37    20    15   ar
    38    37    31   ar
    39     4     5    1
    40    36    39    1
    41    29    30    1
@<TRIPOS>MOLECULE
*****
 39 41 0 0 0
SMALL
GASTEIGER

@<TRIPOS>ATOM
      1 O          63.9061   90.7697   12.5568 O.3     1  UNL1       -0.2709
      2 P          63.9078   90.3950   14.0093 P.3     1  UNL1        0.4634
      3 O          62.4319   90.1349   13.9439 O.2     1  UNL1       -0.2281
      4 N          65.3836   90.6551   14.0747 N.3     1  UNL1       -0.1929
      5 H          65.7724   89.9813   14.7344 H       1  UNL1        0.1358
      6 C          65.8896   92.0058   14.4864 C.3     1  UNL1        0.1635
      7 C          65.8104   92.4304   15.9229 C.3     1  UNL1        0.0296
      8 C          66.4748   92.9319   13.4618 C.2     1  UNL1        0.3317
      9 O          66.1958   94.4039   13.5349 O.2     1  UNL1       -0.2486
     10 O          67.3389   92.3859   12.3639 O.3     1  UNL1       -0.4514
     11 C          65.5338   92.9543   10.5840 C.3     1  UNL1        0.0473
     12 C          66.9462   92.5867   10.9303 C.3     1  UNL1        0.1691
     13 C          67.9659   92.4199    9.8429 C.3     1  UNL1        0.0473
     14 O          63.9094   90.0204   15.4617 O.3     1  UNL1       -0.4115
     15 C          63.7345   88.5868   15.8666 C.ar    1  UNL1        0.1479
     16 C          62.9642   88.2467   17.1079 C.ar    1  UNL1        0.0374
     17 C          62.7892   86.8130   17.5128 C.ar    1  UNL1        0.0031
     18 C          63.3847   85.7194   16.6765 C.ar    1  UNL1        0.0002
     19 C          64.1551   86.0595   15.4353 C.ar    1  UNL1        0.0031
     20 C          64.3300   87.4931   15.0303 C.ar    1  UNL1        0.0374
     21 C          62.6875   90.5187   11.7189 C.3     1  UNL1        0.1857
     22 C          62.2836   89.1133   11.3847 C.3     1  UNL1        0.1782
     23 O          62.9643   87.8637   11.8592 O.3     1  UNL1       -0.3297
     24 C          62.2295   86.6889   11.2851 C.3     1  UNL1        0.2564
     25 C          61.0945   87.2123   10.4557 C.3     1  UNL1        0.2707
     26 F          60.8114   85.7599   10.2100 F       1  UNL1       -0.2161
     27 CL         59.9003   87.4321    9.5749 Cl      1  UNL1       -0.0736
     28 C          61.1279   88.7107   10.5172 C.3     1  UNL1        0.1891
     29 O          60.1733   89.6428    9.8317 O.3     1  UNL1       -0.3782
     30 H          60.4156   90.5600   10.0340 H       1  UNL1        0.2106
     31 N          62.5698   85.2442   11.5022 N.ar    1  UNL1       -0.2539
     32 C          62.3494   84.6155   12.8461 C.ar    1  UNL1        0.0869
     33 C          62.6897   83.1708   13.0631 C.ar    1  UNL1        0.0795
     34 C          63.2504   82.3549   11.9362 C.ar    1  UNL1        0.2626
     35 O          63.5907   80.9102   12.1533 O.2     1  UNL1       -0.2670
     36 N          63.4708   82.9836   10.5923 N.ar    1  UNL1       -0.2743
     37 C          63.1305   84.4282   10.3753 C.ar    1  UNL1        0.3323
     38 O          63.3508   85.0570    9.0313 O.2     1  UNL1       -0.2464
     39 H          63.8388   82.4480    9.8527 H       1  UNL1        0.1734
@<TRIPOS>BOND
     1    11    12    1
     2    12    13    1
     3    12    10    1
     4    10     8    1
     5     8     9    2
     6     8     6    1
     7     6     7    1
     8     6     4    1
     9     4     2    1
    10     2     3    2
    11     2     1    1
    12     1    21    1
    13    22    21    1
    14    22    23    1
    15    23    24    1
    16    24    31    1
    17    31    32   ar
    18    32    33   ar
    19    33    34   ar
    20    34    35    2
    21    34    36   ar
    22    36    37   ar
    23    37    38    2
    24    24    25    1
    25    25    26    1
    26    25    27    1
    27    25    28    1
    28    28    29    1
    29     2    14    1
    30    14    15    1
    31    15    16   ar
    32    16    17   ar
    33    17    18   ar
    34    18    19   ar
    35    19    20   ar
    36    28    22    1
    37    20    15   ar
    38    37    31   ar
    39     4     5    1
    40    36    39    1
    41    29    30    1
@<TRIPOS>MOLECULE
*****
 39 41 0 0 0
SMALL
GASTEIGER

@<TRIPOS>ATOM
      1 O          62.9205   88.7868   11.5221 O.3     1  UNL1       -0.2709
      2 P          62.4138   87.4137   11.8501 P.3     1  UNL1        0.4634
      3 O          63.4824   87.2683   12.8927 O.2     1  UNL1       -0.2281
      4 N          61.3451   87.5590   10.8076 N.3     1  UNL1       -0.1929
      5 H          61.8181   87.7660    9.9279 H       1  UNL1        0.1358
      6 C          60.2699   88.5915   10.9745 C.3     1  UNL1        0.1635
      7 C          59.3897   88.5681   12.1888 C.3     1  UNL1        0.0296
      8 C          60.0751   89.6475    9.9271 C.2     1  UNL1        0.3317
      9 O          59.4222   90.9491   10.2868 O.2     1  UNL1       -0.2486
     10 O          60.5330   89.4016    8.5199 O.3     1  UNL1       -0.4514
     11 C          59.1367   89.6326    6.3413 C.3     1  UNL1        0.0473
     12 C          59.5869   88.8144    7.5151 C.3     1  UNL1        0.1691
     13 C          59.0909   87.4089    7.6841 C.3     1  UNL1        0.0473
     14 O          61.9071   86.0406   12.1781 O.3     1  UNL1       -0.4115
     15 C          62.6839   84.8318   11.7476 C.ar    1  UNL1        0.1479
     16 C          63.0801   84.6677   10.3103 C.ar    1  UNL1        0.0374
     17 C          63.8569   83.4589    9.8797 C.ar    1  UNL1        0.0031
     18 C          64.2375   82.4141   10.8865 C.ar    1  UNL1        0.0002
     19 C          63.8412   82.5782   12.3238 C.ar    1  UNL1        0.0031
     20 C          63.0644   83.7870   12.7544 C.ar    1  UNL1        0.0374
     21 C          63.0140   89.8285   12.5974 C.3     1  UNL1        0.1857
     22 C          64.0392   90.9189   12.4981 C.3     1  UNL1        0.1782
     23 O          64.3318   91.7459   11.2814 O.3     1  UNL1       -0.3297
     24 C          65.4253   92.7120   11.6295 C.3     1  UNL1        0.2564
     25 C          65.8085   92.4820   13.0614 C.3     1  UNL1        0.2707
     26 F          66.7880   93.5905   12.8131 F       1  UNL1       -0.2161
     27 CL         66.3964   92.4838   14.4414 Cl      1  UNL1       -0.0736
     28 C          64.9519   91.3738   13.5983 C.3     1  UNL1        0.1891
     29 O          64.9995   90.8182   14.9907 O.3     1  UNL1       -0.3782
     30 H          64.3431   90.1094   15.0786 H       1  UNL1        0.2106
     31 N          66.0295   93.7294   10.7076 N.ar    1  UNL1       -0.2539
     32 C          65.4629   95.1169   10.6472 C.ar    1  UNL1        0.0869
     33 C          66.0671   96.1342    9.7253 C.ar    1  UNL1        0.0795
     34 C          67.2379   95.7640    8.8638 C.ar    1  UNL1        0.2626
     35 O          67.8421   96.7814    7.9419 O.2     1  UNL1       -0.2670
     36 N          67.8045   94.3765    8.9242 N.ar    1  UNL1       -0.2743
     37 C          67.2003   93.3592    9.8461 C.ar    1  UNL1        0.3323
     38 O          67.7669   91.9716    9.9066 O.2     1  UNL1       -0.2464
     39 H          68.5730   94.1335    8.3588 H       1  UNL1        0.1734
@<TRIPOS>BOND
     1    11    12    1
     2    12    13    1
     3    12    10    1
     4    10     8    1
     5     8     9    2
     6     8     6    1
     7     6     7    1
     8     6     4    1
     9     4     2    1
    10     2     3    2
    11     2     1    1
    12     1    21    1
    13    22    21    1
    14    22    23    1
    15    23    24    1
    16    24    31    1
    17    31    32   ar
    18    32    33   ar
    19    33    34   ar
    20    34    35    2
    21    34    36   ar
    22    36    37   ar
    23    37    38    2
    24    24    25    1
    25    25    26    1
    26    25    27    1
    27    25    28    1
    28    28    29    1
    29     2    14    1
    30    14    15    1
    31    15    16   ar
    32    16    17   ar
    33    17    18   ar
    34    18    19   ar
    35    19    20   ar
    36    28    22    1
    37    20    15   ar
    38    37    31   ar
    39     4     5    1
    40    36    39    1
    41    29    30    1
@<TRIPOS>MOLECULE
*****
 39 41 0 0 0
SMALL
GASTEIGER

@<TRIPOS>ATOM
      1 O          64.1358   90.2146   12.6186 O.3     1  UNL1       -0.2709
      2 P          64.7124   91.5985   12.5720 P.3     1  UNL1        0.4634
      3 O          63.7686   91.9544   11.4617 O.2     1  UNL1       -0.2281
      4 N          65.6562   91.2427   13.6823 N.3     1  UNL1       -0.1929
      5 H          65.6812   90.2243   13.7325 H       1  UNL1        0.1358
      6 C          65.3977   91.7385   15.0742 C.3     1  UNL1        0.1635
      7 C          66.4543   92.5158   15.8018 C.3     1  UNL1        0.0296
      8 C          64.0826   91.4571   15.7385 C.2     1  UNL1        0.3317
      9 O          63.5889   92.3540   16.8348 O.2     1  UNL1       -0.2486
     10 O          63.2611   90.2786   15.3065 O.3     1  UNL1       -0.4514
     11 C          63.0440   88.4617   17.1508 C.3     1  UNL1        0.0473
     12 C          63.5843   88.9087   15.8248 C.3     1  UNL1        0.1691
     13 C          64.4479   87.9857   15.0171 C.3     1  UNL1        0.0473
     14 O          65.2889   92.9824   12.5254 O.3     1  UNL1       -0.4115
     15 C          66.1560   93.3953   11.3732 C.ar    1  UNL1        0.1479
     16 C          67.1108   92.4124   10.7632 C.ar    1  UNL1        0.0374
     17 C          67.9779   92.8252    9.6109 C.ar    1  UNL1        0.0031
     18 C          67.8902   94.2211    9.0687 C.ar    1  UNL1        0.0002
     19 C          66.9354   95.2039    9.6787 C.ar    1  UNL1        0.0031
     20 C          66.0683   94.7911   10.8309 C.ar    1  UNL1        0.0374
     21 C          63.0959   89.8013   11.6198 C.3     1  UNL1        0.1857
     22 C          62.7132   88.3568   11.4895 C.3     1  UNL1        0.1782
     23 O          63.2148   87.2312   12.3448 O.3     1  UNL1       -0.3297
     24 C          62.5734   85.9630   11.8650 C.3     1  UNL1        0.2564
     25 C          61.6753   86.3048   10.7132 C.3     1  UNL1        0.2707
     26 F          61.3886   84.8325   10.7041 F       1  UNL1       -0.2161
     27 CL         60.7173   86.3388    9.5595 Cl      1  UNL1       -0.0736
     28 C          61.7617   87.7842   10.4811 C.3     1  UNL1        0.1891
     29 O          61.0258   88.5556    9.4259 O.3     1  UNL1       -0.3782
     30 H          61.2583   89.4951    9.4910 H       1  UNL1        0.2106
     31 N          62.7916   84.5935   12.4367 N.ar    1  UNL1       -0.2539
     32 C          62.2564   84.2542   13.7962 C.ar    1  UNL1        0.0869
     33 C          62.4747   82.8847   14.3678 C.ar    1  UNL1        0.0795
     34 C          63.2282   81.8545   13.5799 C.ar    1  UNL1        0.2626
     35 O          63.4465   80.4849   14.1515 O.2     1  UNL1       -0.2670
     36 N          63.7634   82.1937   12.2203 N.ar    1  UNL1       -0.2743
     37 C          63.5451   83.5632   11.6487 C.ar    1  UNL1        0.3323
     38 O          64.0804   83.9026   10.2891 O.2     1  UNL1       -0.2464
     39 H          64.2580   81.5176   11.7032 H       1  UNL1        0.1734
@<TRIPOS>BOND
     1    11    12    1
     2    12    13    1
     3    12    10    1
     4    10     8    1
     5     8     9    2
     6     8     6    1
     7     6     7    1
     8     6     4    1
     9     4     2    1
    10     2     3    2
    11     2     1    1
    12     1    21    1
    13    22    21    1
    14    22    23    1
    15    23    24    1
    16    24    31    1
    17    31    32   ar
    18    32    33   ar
    19    33    34   ar
    20    34    35    2
    21    34    36   ar
    22    36    37   ar
    23    37    38    2
    24    24    25    1
    25    25    26    1
    26    25    27    1
    27    25    28    1
    28    28    29    1
    29     2    14    1
    30    14    15    1
    31    15    16   ar
    32    16    17   ar
    33    17    18   ar
    34    18    19   ar
    35    19    20   ar
    36    28    22    1
    37    20    15   ar
    38    37    31   ar
    39     4     5    1
    40    36    39    1
    41    29    30    1
@<TRIPOS>MOLECULE
*****
 39 41 0 0 0
SMALL
GASTEIGER

@<TRIPOS>ATOM
      1 O          63.4288   88.4204   12.5660 O.3     1  UNL1       -0.2709
      2 P          62.4706   87.4006   12.0257 P.3     1  UNL1        0.4634
      3 O          61.4762   88.4866   11.7394 O.2     1  UNL1       -0.2281
      4 N          63.4649   86.3146   12.3121 N.3     1  UNL1       -0.1929
      5 H          63.2900   85.5699   11.6374 H       1  UNL1        0.1358
      6 C          63.5038   85.6715   13.6666 C.3     1  UNL1        0.1635
      7 C          64.2653   86.3211   14.7837 C.3     1  UNL1        0.0296
      8 C          62.7811   84.3786   13.9041 C.2     1  UNL1        0.3317
      9 O          62.4678   83.9407   15.3041 O.2     1  UNL1       -0.2486
     10 O          62.3716   83.5238   12.7414 O.3     1  UNL1       -0.4514
     11 C          62.9991   81.0027   12.7265 C.3     1  UNL1        0.0473
     12 C          63.2632   82.4098   12.2789 C.3     1  UNL1        0.1691
     13 C          64.4190   82.7028   11.3689 C.3     1  UNL1        0.0473
     14 O          61.5124   86.3809   11.4855 O.3     1  UNL1       -0.4115
     15 C          61.5379   86.0256   10.0285 C.ar    1  UNL1        0.1479
     16 C          62.7365   85.3380    9.4450 C.ar    1  UNL1        0.0374
     17 C          62.7620   84.9827    7.9880 C.ar    1  UNL1        0.0031
     18 C          61.5888   85.3150    7.1143 C.ar    1  UNL1        0.0002
     19 C          60.3902   86.0026    7.6977 C.ar    1  UNL1        0.0031
     20 C          60.3647   86.3579    9.1548 C.ar    1  UNL1        0.0374
     21 C          63.0135   89.8579   12.6715 C.3     1  UNL1        0.1857
     22 C          64.0415   90.9452   12.5661 C.3     1  UNL1        0.1782
     23 O          64.3379   91.7629   11.3440 O.3     1  UNL1       -0.3297
     24 C          65.4331   92.7288   11.6870 C.3     1  UNL1        0.2564
     25 C          65.8136   92.5080   13.1210 C.3     1  UNL1        0.2707
     26 F          66.7961   93.6124   12.8663 F       1  UNL1       -0.2161
     27 CL         66.3995   92.5182   14.5019 Cl      1  UNL1       -0.0736
     28 C          64.9535   91.4057   13.6644 C.3     1  UNL1        0.1891
     29 O          64.9977   90.8598   15.0608 O.3     1  UNL1       -0.3782
     30 H          64.3395   90.1533   15.1527 H       1  UNL1        0.2106
     31 N          66.0411   93.7382   10.7588 N.ar    1  UNL1       -0.2539
     32 C          65.4938   95.1337   10.7059 C.ar    1  UNL1        0.0869
     33 C          66.1018   96.1431    9.7778 C.ar    1  UNL1        0.0795
     34 C          67.2572   95.7569    8.9025 C.ar    1  UNL1        0.2626
     35 O          67.8652   96.7663    7.9744 O.2     1  UNL1       -0.2670
     36 N          67.8045   94.3613    8.9554 N.ar    1  UNL1       -0.2743
     37 C          67.1964   93.3520    9.8835 C.ar    1  UNL1        0.3323
     38 O          67.7437   91.9563    9.9365 O.2     1  UNL1       -0.2464
     39 H          68.5628   94.1078    8.3810 H       1  UNL1        0.1734
@<TRIPOS>BOND
     1    11    12    1
     2    12    13    1
     3    12    10    1
     4    10     8    1
     5     8     9    2
     6     8     6    1
     7     6     7    1
     8     6     4    1
     9     4     2    1
    10     2     3    2
    11     2     1    1
    12     1    21    1
    13    22    21    1
    14    22    23    1
    15    23    24    1
    16    24    31    1
    17    31    32   ar
    18    32    33   ar
    19    33    34   ar
    20    34    35    2
    21    34    36   ar
    22    36    37   ar
    23    37    38    2
    24    24    25    1
    25    25    26    1
    26    25    27    1
    27    25    28    1
    28    28    29    1
    29     2    14    1
    30    14    15    1
    31    15    16   ar
    32    16    17   ar
    33    17    18   ar
    34    18    19   ar
    35    19    20   ar
    36    28    22    1
    37    20    15   ar
    38    37    31   ar
    39     4     5    1
    40    36    39    1
    41    29    30    1
@<TRIPOS>MOLECULE
*****
 39 41 0 0 0
SMALL
GASTEIGER

@<TRIPOS>ATOM
      1 O          64.2497   89.9802   12.7132 O.3     1  UNL1       -0.2709
      2 P          64.6660   91.4173   12.6064 P.3     1  UNL1        0.4634
      3 O          63.7818   91.5843   11.4062 O.2     1  UNL1       -0.2281
      4 N          65.5502   91.2504   13.8065 N.3     1  UNL1       -0.1929
      5 H          65.9339   90.3065   13.7605 H       1  UNL1        0.1358
      6 C          64.9837   91.4208   15.1849 C.3     1  UNL1        0.1635
      7 C          63.9302   90.4773   15.6847 C.3     1  UNL1        0.0296
      8 C          65.4708   92.5348   16.0635 C.2     1  UNL1        0.3317
      9 O          64.8994   92.7094   17.4394 O.2     1  UNL1       -0.2486
     10 O          66.5294   93.4741   15.5662 O.3     1  UNL1       -0.4514
     11 C          68.4487   91.7816   16.0146 C.3     1  UNL1        0.0473
     12 C          67.9747   93.1957   15.8548 C.3     1  UNL1        0.1691
     13 C          68.9461   94.3314   15.9836 C.3     1  UNL1        0.0473
     14 O          65.0823   92.8544   12.4995 O.3     1  UNL1       -0.4115
     15 C          65.9943   93.2906   11.3914 C.ar    1  UNL1        0.1479
     16 C          65.8799   94.6757   10.8273 C.ar    1  UNL1        0.0374
     17 C          66.7919   95.1120    9.7192 C.ar    1  UNL1        0.0031
     18 C          67.8184   94.1631    9.1752 C.ar    1  UNL1        0.0002
     19 C          67.9328   92.7780    9.7393 C.ar    1  UNL1        0.0031
     20 C          67.0208   92.3417   10.8474 C.ar    1  UNL1        0.0374
     21 C          62.9737   89.5195   12.0733 C.3     1  UNL1        0.1857
     22 C          62.7178   88.0540   11.8806 C.3     1  UNL1        0.1782
     23 O          63.2499   86.9457   12.7399 O.3     1  UNL1       -0.3297
     24 C          62.7458   85.6464   12.1852 C.3     1  UNL1        0.2564
     25 C          61.9020   85.9517   10.9832 C.3     1  UNL1        0.2707
     26 F          61.7357   84.4624   10.9173 F       1  UNL1       -0.2161
     27 CL         61.0235   85.9457    9.7674 Cl      1  UNL1       -0.0736
     28 C          61.8847   87.4397   10.7949 C.3     1  UNL1        0.1891
     29 O          61.1613   88.1830    9.7113 O.3     1  UNL1       -0.3782
     30 H          61.3127   89.1354    9.8159 H       1  UNL1        0.2106
     31 N          63.0347   84.2813   12.7359 N.ar    1  UNL1       -0.2539
     32 C          63.8323   83.3003   11.9288 C.ar    1  UNL1        0.0869
     33 C          64.1211   81.9353   12.4795 C.ar    1  UNL1        0.0795
     34 C          63.6124   81.5513   13.8374 C.ar    1  UNL1        0.2626
     35 O          63.9013   80.1862   14.3880 O.2     1  UNL1       -0.2670
     36 N          62.8149   82.5323   14.6445 N.ar    1  UNL1       -0.2743
     37 C          62.5260   83.8973   14.0938 C.ar    1  UNL1        0.3323
     38 O          61.7284   84.8784   14.9010 O.2     1  UNL1       -0.2464
     39 H          62.4810   82.2803   15.5357 H       1  UNL1        0.1734
@<TRIPOS>BOND
     1    11    12    1
     2    12    13    1
     3    12    10    1
     4    10     8    1
     5     8     9    2
     6     8     6    1
     7     6     7    1
     8     6     4    1
     9     4     2    1
    10     2     3    2
    11     2     1    1
    12     1    21    1
    13    22    21    1
    14    22    23    1
    15    23    24    1
    16    24    31    1
    17    31    32   ar
    18    32    33   ar
    19    33    34   ar
    20    34    35    2
    21    34    36   ar
    22    36    37   ar
    23    37    38    2
    24    24    25    1
    25    25    26    1
    26    25    27    1
    27    25    28    1
    28    28    29    1
    29     2    14    1
    30    14    15    1
    31    15    16   ar
    32    16    17   ar
    33    17    18   ar
    34    18    19   ar
    35    19    20   ar
    36    28    22    1
    37    20    15   ar
    38    37    31   ar
    39     4     5    1
    40    36    39    1
    41    29    30    1
@<TRIPOS>MOLECULE
*****
 39 41 0 0 0
SMALL
GASTEIGER

@<TRIPOS>ATOM
      1 O          64.6726   90.0867   13.5849 O.3     1  UNL1       -0.2709
      2 P          65.0291   91.5297   13.3831 P.3     1  UNL1        0.4634
      3 O          66.3877   91.2756   13.9659 O.2     1  UNL1       -0.2281
      4 N          63.6705   91.7838   12.8003 N.3     1  UNL1       -0.1929
      5 H          62.9952   91.6285   13.5488 H       1  UNL1        0.1358
      6 C          63.1996   90.9867   11.6201 C.3     1  UNL1        0.1635
      7 C          63.5131   91.4505   10.2285 C.3     1  UNL1        0.0296
      8 C          62.4152   89.7257   11.8316 C.2     1  UNL1        0.3317
      9 O          61.4155   89.6424   12.9467 O.2     1  UNL1       -0.2486
     10 O          62.6306   88.5480   10.9278 O.3     1  UNL1       -0.4514
     11 C          60.5783   89.2473    9.4964 C.3     1  UNL1        0.0473
     12 C          61.6448   88.2492    9.8375 C.3     1  UNL1        0.1691
     13 C          61.7254   86.9523    9.0882 C.3     1  UNL1        0.0473
     14 O          65.3855   92.9726   13.1813 O.3     1  UNL1       -0.4115
     15 C          66.1182   93.3982   11.9435 C.ar    1  UNL1        0.1479
     16 C          66.8459   92.3809   11.1157 C.ar    1  UNL1        0.0374
     17 C          67.5786   92.8065    9.8779 C.ar    1  UNL1        0.0031
     18 C          67.5835   94.2494    9.4680 C.ar    1  UNL1        0.0002
     19 C          66.8557   95.2666   10.2958 C.ar    1  UNL1        0.0031
     20 C          66.1230   94.8411   11.5336 C.ar    1  UNL1        0.0374
     21 C          64.5220   89.5384   14.9729 C.3     1  UNL1        0.1857
     22 C          64.0401   88.1325   15.1758 C.3     1  UNL1        0.1782
     23 O          64.1053   87.0239   14.1674 O.3     1  UNL1       -0.3297
     24 C          63.5138   85.7946   14.7911 C.3     1  UNL1        0.2564
     25 C          63.0830   86.1435   16.1849 C.3     1  UNL1        0.2707
     26 F          62.6487   84.7088   16.2409 F       1  UNL1       -0.2161
     27 CL         62.5613   86.1923   17.5904 Cl      1  UNL1       -0.0736
     28 C          63.4082   87.5883   16.4227 C.3     1  UNL1        0.1891
     29 O          63.1474   88.3545   17.6856 O.3     1  UNL1       -0.3782
     30 H          63.4518   89.2691   17.5776 H       1  UNL1        0.2106
     31 N          63.3772   84.4522   14.1359 N.ar    1  UNL1       -0.2539
     32 C          64.0282   83.2483   14.7497 C.ar    1  UNL1        0.0869
     33 C          63.8915   81.9059   14.0946 C.ar    1  UNL1        0.0795
     34 C          63.1037   81.7674   12.8256 C.ar    1  UNL1        0.2626
     35 O          62.9671   80.4249   12.1704 O.2     1  UNL1       -0.2670
     36 N          62.4527   82.9713   12.2118 N.ar    1  UNL1       -0.2743
     37 C          62.5895   84.3137   12.8669 C.ar    1  UNL1        0.3323
     38 O          61.9384   85.5176   12.2531 O.2     1  UNL1       -0.2464
     39 H          61.9358   82.8804   11.3789 H       1  UNL1        0.1734
@<TRIPOS>BOND
     1    11    12    1
     2    12    13    1
     3    12    10    1
     4    10     8    1
     5     8     9    2
     6     8     6    1
     7     6     7    1
     8     6     4    1
     9     4     2    1
    10     2     3    2
    11     2     1    1
    12     1    21    1
    13    22    21    1
    14    22    23    1
    15    23    24    1
    16    24    31    1
    17    31    32   ar
    18    32    33   ar
    19    33    34   ar
    20    34    35    2
    21    34    36   ar
    22    36    37   ar
    23    37    38    2
    24    24    25    1
    25    25    26    1
    26    25    27    1
    27    25    28    1
    28    28    29    1
    29     2    14    1
    30    14    15    1
    31    15    16   ar
    32    16    17   ar
    33    17    18   ar
    34    18    19   ar
    35    19    20   ar
    36    28    22    1
    37    20    15   ar
    38    37    31   ar
    39     4     5    1
    40    36    39    1
    41    29    30    1
@<TRIPOS>MOLECULE
*****
 39 41 0 0 0
SMALL
GASTEIGER

@<TRIPOS>ATOM
      1 O          63.2599   88.3595   12.1136 O.3     1  UNL1       -0.2709
      2 P          62.2197   87.4948   11.4652 P.3     1  UNL1        0.4634
      3 O          62.3010   88.3296   10.2215 O.2     1  UNL1       -0.2281
      4 N          62.1383   86.6601   12.7088 N.3     1  UNL1       -0.1929
      5 H          62.1045   87.3075   13.4963 H       1  UNL1        0.1358
      6 C          63.2160   85.6626   13.0144 C.3     1  UNL1        0.1635
      7 C          63.3345   84.4118   12.1949 C.3     1  UNL1        0.0296
      8 C          64.1753   85.9158   14.1394 C.2     1  UNL1        0.3317
      9 O          65.2211   84.8950   14.4774 O.2     1  UNL1       -0.2486
     10 O          64.0887   87.1898   14.9265 O.3     1  UNL1       -0.4514
     11 C          63.0377   85.9082   16.9272 C.3     1  UNL1        0.0473
     12 C          63.4064   87.2012   16.2622 C.3     1  UNL1        0.1691
     13 C          63.0927   88.5057   16.9330 C.3     1  UNL1        0.0473
     14 O          61.1795   86.6302   10.8168 O.3     1  UNL1       -0.4115
     15 C          61.4214   86.0638    9.4491 C.ar    1  UNL1        0.1479
     16 C          60.3475   86.1407    8.4048 C.ar    1  UNL1        0.0374
     17 C          60.5894   85.5743    7.0371 C.ar    1  UNL1        0.0031
     18 C          61.9052   84.9308    6.7137 C.ar    1  UNL1        0.0002
     19 C          62.9791   84.8539    7.7580 C.ar    1  UNL1        0.0031
     20 C          62.7373   85.4204    9.1257 C.ar    1  UNL1        0.0374
     21 C          62.9301   89.7727   12.4931 C.3     1  UNL1        0.1857
     22 C          63.9857   90.8357   12.4163 C.3     1  UNL1        0.1782
     23 O          64.2769   91.7049   11.2291 O.3     1  UNL1       -0.3297
     24 C          65.4065   92.6225   11.5923 C.3     1  UNL1        0.2564
     25 C          65.8135   92.3203   13.0041 C.3     1  UNL1        0.2707
     26 F          66.8207   93.4091   12.7801 F       1  UNL1       -0.2161
     27 CL         66.4310   92.2458   14.3690 Cl      1  UNL1       -0.0736
     28 C          64.9354   91.2160   13.5134 C.3     1  UNL1        0.1891
     29 O          64.9963   90.6002   14.8797 O.3     1  UNL1       -0.3782
     30 H          64.3206   89.9080   14.9528 H       1  UNL1        0.2106
     31 N          66.0213   93.6601   10.7004 N.ar    1  UNL1       -0.2539
     32 C          65.4554   95.0488   10.6645 C.ar    1  UNL1        0.0869
     33 C          66.0702   96.0863    9.7726 C.ar    1  UNL1        0.0795
     34 C          67.2509   95.7352    8.9166 C.ar    1  UNL1        0.2626
     35 O          67.8657   96.7728    8.0246 O.2     1  UNL1       -0.2670
     36 N          67.8167   94.3465    8.9524 N.ar    1  UNL1       -0.2743
     37 C          67.2019   93.3090    9.8443 C.ar    1  UNL1        0.3323
     38 O          67.7678   91.9202    9.8802 O.2     1  UNL1       -0.2464
     39 H          68.5916   94.1160    8.3906 H       1  UNL1        0.1734
@<TRIPOS>BOND
     1    11    12    1
     2    12    13    1
     3    12    10    1
     4    10     8    1
     5     8     9    2
     6     8     6    1
     7     6     7    1
     8     6     4    1
     9     4     2    1
    10     2     3    2
    11     2     1    1
    12     1    21    1
    13    22    21    1
    14    22    23    1
    15    23    24    1
    16    24    31    1
    17    31    32   ar
    18    32    33   ar
    19    33    34   ar
    20    34    35    2
    21    34    36   ar
    22    36    37   ar
    23    37    38    2
    24    24    25    1
    25    25    26    1
    26    25    27    1
    27    25    28    1
    28    28    29    1
    29     2    14    1
    30    14    15    1
    31    15    16   ar
    32    16    17   ar
    33    17    18   ar
    34    18    19   ar
    35    19    20   ar
    36    28    22    1
    37    20    15   ar
    38    37    31   ar
    39     4     5    1
    40    36    39    1
    41    29    30    1
@<TRIPOS>MOLECULE
*****
 39 41 0 0 0
SMALL
GASTEIGER

@<TRIPOS>ATOM
      1 O          63.7232   90.4280   11.6092 O.3     1  UNL1       -0.2709
      2 P          64.0427   91.1872   12.8629 P.3     1  UNL1        0.4634
      3 O          64.9457   92.0958   12.0825 O.2     1  UNL1       -0.2281
      4 N          63.1397   90.2786   13.6433 N.3     1  UNL1       -0.1929
      5 H          62.4159   90.8666   14.0565 H       1  UNL1        0.1358
      6 C          63.6988   89.4368   14.7517 C.3     1  UNL1        0.1635
      7 C          64.8631   88.5282   14.4893 C.3     1  UNL1        0.0296
      8 C          63.0936   89.5036   16.1226 C.2     1  UNL1        0.3317
      9 O          63.3740   90.6802   17.0097 O.2     1  UNL1       -0.2486
     10 O          62.2081   88.3937   16.6065 O.3     1  UNL1       -0.4514
     11 C          63.5043   86.1463   16.4707 C.3     1  UNL1        0.0473
     12 C          62.8075   87.1970   17.2834 C.3     1  UNL1        0.1691
     13 C          62.7102   87.0508   18.7731 C.3     1  UNL1        0.0473
     14 O          64.3622   91.9463   14.1164 O.3     1  UNL1       -0.4115
     15 C          65.7896   92.1270   14.5406 C.ar    1  UNL1        0.1479
     16 C          66.9025   91.7325   13.6157 C.ar    1  UNL1        0.0374
     17 C          68.3299   91.9131   14.0399 C.ar    1  UNL1        0.0031
     18 C          68.6443   92.4883   15.3891 C.ar    1  UNL1        0.0002
     19 C          67.5313   92.8828   16.3141 C.ar    1  UNL1        0.0031
     20 C          66.1040   92.7021   15.8899 C.ar    1  UNL1        0.0374
     21 C          62.3569   89.8399   11.4162 C.3     1  UNL1        0.1857
     22 C          62.1930   88.3561   11.2692 C.3     1  UNL1        0.1782
     23 O          62.7909   87.3102   12.1627 O.3     1  UNL1       -0.3297
     24 C          62.3698   85.9655   11.6485 C.3     1  UNL1        0.2564
     25 C          61.5116   86.1803   10.4372 C.3     1  UNL1        0.2707
     26 F          61.4383   84.6823   10.4175 F       1  UNL1       -0.2161
     27 CL         60.6381   86.0820    9.2217 Cl      1  UNL1       -0.0736
     28 C          61.4023   87.6578   10.2027 C.3     1  UNL1        0.1891
     29 O          60.6368   88.3207    9.0961 O.3     1  UNL1       -0.3782
     30 H          60.7285   89.2834    9.1710 H       1  UNL1        0.2106
     31 N          62.7416   84.6387   12.2416 N.ar    1  UNL1       -0.2539
     32 C          62.2502   84.2639   13.6083 C.ar    1  UNL1        0.0869
     33 C          62.6220   82.9373   14.2012 C.ar    1  UNL1        0.0795
     34 C          63.4853   81.9854   13.4275 C.ar    1  UNL1        0.2626
     35 O          63.8571   80.6587   14.0205 O.2     1  UNL1       -0.2670
     36 N          63.9767   82.3602   12.0608 N.ar    1  UNL1       -0.2743
     37 C          63.6049   83.6868   11.4678 C.ar    1  UNL1        0.3323
     38 O          64.0963   84.0617   10.1010 O.2     1  UNL1       -0.2464
     39 H          64.5433   81.7354   11.5529 H       1  UNL1        0.1734
@<TRIPOS>BOND
     1    11    12    1
     2    12    13    1
     3    12    10    1
     4    10     8    1
     5     8     9    2
     6     8     6    1
     7     6     7    1
     8     6     4    1
     9     4     2    1
    10     2     3    2
    11     2     1    1
    12     1    21    1
    13    22    21    1
    14    22    23    1
    15    23    24    1
    16    24    31    1
    17    31    32   ar
    18    32    33   ar
    19    33    34   ar
    20    34    35    2
    21    34    36   ar
    22    36    37   ar
    23    37    38    2
    24    24    25    1
    25    25    26    1
    26    25    27    1
    27    25    28    1
    28    28    29    1
    29     2    14    1
    30    14    15    1
    31    15    16   ar
    32    16    17   ar
    33    17    18   ar
    34    18    19   ar
    35    19    20   ar
    36    28    22    1
    37    20    15   ar
    38    37    31   ar
    39     4     5    1
    40    36    39    1
    41    29    30    1
