@<TRIPOS>MOLECULE
*****
 33 36 0 0 0
SMALL
GASTEIGER

@<TRIPOS>ATOM
      1 N          64.9797   90.1641   14.4110 N.ar    1  UNL1       -0.2874
      2 C          66.0890   90.9583   15.0343 C.ar    1  UNL1        0.0858
      3 C          66.6779   92.1272   14.3015 C.ar    1  UNL1        0.0705
      4 C          66.1574   92.5018   12.9455 C.ar    1  UNL1        0.1996
      5 O          66.7463   93.6708   12.2128 O.2     1  UNL1       -0.2864
      6 C          65.0481   91.7076   12.3222 C.ar    1  UNL1        0.0583
      7 C          64.5276   92.0822   10.9662 C.ar    1  UNL1        0.0356
      8 C          63.4182   91.2880   10.3430 C.ar    1  UNL1        0.1543
      9 F          62.8978   91.6626    8.9870 F       1  UNL1       -0.2028
     10 C          62.8293   90.1191   11.0757 C.ar    1  UNL1        0.0879
     11 C          63.3498   89.7444   12.4317 C.ar    1  UNL1        0.0893
     12 CL         62.7609   88.5756   13.1645 Cl      1  UNL1       -0.0794
     13 C          64.4592   90.5387   13.0550 C.ar    1  UNL1        0.0803
     14 N          64.4961   85.0292   15.0433 N.pl3   1  UNL1       -0.3408
     15 C          64.1490   86.4277   15.4599 C.ar    1  UNL1        0.1548
     16 N          64.7379   87.5967   14.7271 N.ar    1  UNL1       -0.2091
     17 C          64.3907   88.9952   15.1437 C.ar    1  UNL1        0.1769
     18 C          63.4546   89.2248   16.2931 C.ar    1  UNL1        0.1767
     19 F          63.1075   90.6234   16.7097 F       1  UNL1       -0.2009
     20 C          62.8657   88.0560   17.0258 C.ar    1  UNL1        0.0652
     21 C          63.2129   86.6574   16.6092 C.ar    1  UNL1        0.1734
     22 F          62.6240   85.4886   17.3420 F       1  UNL1       -0.2012
     23 H          65.1105   84.8785   14.2889 H       1  UNL1        0.1438
     24 H          64.1096   84.2621   15.5242 H       1  UNL1        0.1438
     25 N          61.7200   89.3248   10.4525 N.pl3   1  UNL1       -0.3004
     26 C          60.2372   89.5030   10.3120 C.3     1  UNL1        0.1220
     27 C          60.1511   88.2016    9.5710 C.3     1  UNL1        0.1498
     28 O          59.0417   87.4073    8.9477 O.3     1  UNL1       -0.3810
     29 C          61.6338   88.0235    9.7115 C.3     1  UNL1        0.1220
     30 H          59.4047   86.5983    8.5545 H       1  UNL1        0.2105
     31 C          67.7873   92.9215   14.9248 C.2     1  UNL1        0.0774
     32 O          67.5057   93.8077   16.1017 O.co2   1  UNL1       -0.5444
     33 O          69.1783   92.8295   14.3711 O.co2   1  UNL1       -0.5444
@<TRIPOS>UNITY_ATOM_ATTR
32 1
charge -1
@<TRIPOS>BOND
     1    14    15    1
     2    15    16   ar
     3    16    17   ar
     4    17     1    1
     5     1     2   ar
     6     2     3   ar
     7     3    31    1
     8    31    32   ar
     9    31    33   ar
    10     3     4   ar
    11     4     5    2
    12     4     6   ar
    13     6     7   ar
    14     7     8   ar
    15     8     9    1
    16     8    10   ar
    17    10    25    1
    18    25    26    1
    19    26    27    1
    20    27    28    1
    21    27    29    1
    22    10    11   ar
    23    11    12    1
    24    11    13   ar
    25    17    18   ar
    26    18    19    1
    27    18    20   ar
    28    20    21   ar
    29    21    22    1
    30    21    15   ar
    31    13     1   ar
    32    13     6   ar
    33    29    25    1
    34    14    23    1
    35    14    24    1
    36    28    30    1
@<TRIPOS>MOLECULE
*****
 33 36 0 0 0
SMALL
GASTEIGER

@<TRIPOS>ATOM
      1 N          62.6425   87.7004   11.4999 N.ar    1  UNL1       -0.2874
      2 C          62.9488   89.1663   11.5859 C.ar    1  UNL1        0.0858
      3 C          63.7217   89.7037   12.7537 C.ar    1  UNL1        0.0705
      4 C          64.1883   88.7753   13.8355 C.ar    1  UNL1        0.1996
      5 O          64.9612   89.3129   15.0033 O.2     1  UNL1       -0.2864
      6 C          63.8820   87.3095   13.7495 C.ar    1  UNL1        0.0583
      7 C          64.3487   86.3811   14.8313 C.ar    1  UNL1        0.0356
      8 C          64.0424   84.9152   14.7454 C.ar    1  UNL1        0.1543
      9 F          64.5091   83.9868   15.8272 F       1  UNL1       -0.2028
     10 C          63.2695   84.3777   13.5776 C.ar    1  UNL1        0.0879
     11 C          62.8028   85.3061   12.4958 C.ar    1  UNL1        0.0893
     12 CL         62.0299   84.7686   11.3280 Cl      1  UNL1       -0.0794
     13 C          63.1091   86.7720   12.5818 C.ar    1  UNL1        0.0803
     14 N          62.4882   84.9903    7.0692 N.pl3   1  UNL1       -0.3408
     15 C          61.7924   85.8078    8.1167 C.ar    1  UNL1        0.1548
     16 N          62.5653   86.3454    9.2846 N.ar    1  UNL1       -0.2091
     17 C          61.8696   87.1629   10.3321 C.ar    1  UNL1        0.1769
     18 C          60.4009   87.4430   10.2120 C.ar    1  UNL1        0.1767
     19 F          59.7051   88.2606   11.2596 F       1  UNL1       -0.2009
     20 C          59.6279   86.9055    9.0443 C.ar    1  UNL1        0.0652
     21 C          60.3237   86.0879    7.9966 C.ar    1  UNL1        0.1734
     22 F          59.5508   85.5504    6.8289 F       1  UNL1       -0.2012
     23 H          63.4522   84.8065    7.1480 H       1  UNL1        0.1438
     24 H          61.9809   84.6375    6.3027 H       1  UNL1        0.1438
     25 N          62.9632   82.9118   13.4916 N.pl3   1  UNL1       -0.3004
     26 C          63.5403   81.7501   12.7384 C.3     1  UNL1        0.1220
     27 C          62.5301   80.8388   13.3701 C.3     1  UNL1        0.1498
     28 O          62.2238   79.3728   13.2841 O.3     1  UNL1       -0.3810
     29 C          61.9530   82.0005   14.1233 C.3     1  UNL1        0.1220
     30 H          61.4735   79.1649   13.8626 H       1  UNL1        0.2105
     31 C          64.0280   91.1697   12.8397 C.2     1  UNL1        0.0774
     32 O          64.4010   91.9317   11.6027 O.co2   1  UNL1       -0.5444
     33 O          63.9613   91.8734   14.1626 O.co2   1  UNL1       -0.5444
@<TRIPOS>UNITY_ATOM_ATTR
32 1
charge -1
@<TRIPOS>BOND
     1    14    15    1
     2    15    16   ar
     3    16    17   ar
     4    17     1    1
     5     1     2   ar
     6     2     3   ar
     7     3    31    1
     8    31    32   ar
     9    31    33   ar
    10     3     4   ar
    11     4     5    2
    12     4     6   ar
    13     6     7   ar
    14     7     8   ar
    15     8     9    1
    16     8    10   ar
    17    10    25    1
    18    25    26    1
    19    26    27    1
    20    27    28    1
    21    27    29    1
    22    10    11   ar
    23    11    12    1
    24    11    13   ar
    25    17    18   ar
    26    18    19    1
    27    18    20   ar
    28    20    21   ar
    29    21    22    1
    30    21    15   ar
    31    13     1   ar
    32    13     6   ar
    33    29    25    1
    34    14    23    1
    35    14    24    1
    36    28    30    1
@<TRIPOS>MOLECULE
*****
 33 36 0 0 0
SMALL
GASTEIGER

@<TRIPOS>ATOM
      1 N          62.0237   86.4042   11.0922 N.ar    1  UNL1       -0.2874
      2 C          61.1344   85.8401   10.0241 C.ar    1  UNL1        0.0858
      3 C          60.5332   86.7476    8.9922 C.ar    1  UNL1        0.0705
      4 C          60.8212   88.2192    9.0283 C.ar    1  UNL1        0.1996
      5 O          60.2199   89.1267    7.9963 O.2     1  UNL1       -0.2864
      6 C          61.7105   88.7834   10.0964 C.ar    1  UNL1        0.0583
      7 C          61.9986   90.2550   10.1325 C.ar    1  UNL1        0.0356
      8 C          62.8879   90.8191   11.2006 C.ar    1  UNL1        0.1543
      9 F          63.1760   92.2908   11.2367 F       1  UNL1       -0.2028
     10 C          63.4892   89.9116   12.2326 C.ar    1  UNL1        0.0879
     11 C          63.2012   88.4400   12.1964 C.ar    1  UNL1        0.0893
     12 CL         63.8024   87.5325   13.2284 Cl      1  UNL1       -0.0794
     13 C          62.3118   87.8759   11.1283 C.ar    1  UNL1        0.0803
     14 N          62.3611   84.7946   16.0213 N.pl3   1  UNL1       -0.3408
     15 C          62.7937   84.6919   14.5887 C.ar    1  UNL1        0.1548
     16 N          62.1924   85.5994   13.5567 N.ar    1  UNL1       -0.2091
     17 C          62.6250   85.4967   12.1242 C.ar    1  UNL1        0.1769
     18 C          63.6590   84.4866   11.7235 C.ar    1  UNL1        0.1767
     19 F          64.0916   84.3839   10.2909 F       1  UNL1       -0.2009
     20 C          64.2603   83.5791   12.7554 C.ar    1  UNL1        0.0652
     21 C          63.8277   83.6818   14.1881 C.ar    1  UNL1        0.1734
     22 F          64.4290   82.7743   15.2200 F       1  UNL1       -0.2012
     23 H          61.6825   85.4576   16.2842 H       1  UNL1        0.1438
     24 H          62.7557   84.1990   16.6986 H       1  UNL1        0.1438
     25 N          64.3786   90.4758   13.3007 N.pl3   1  UNL1       -0.3004
     26 C          64.3969   90.4287   14.7998 C.3     1  UNL1        0.1220
     27 C          65.6363   91.2736   14.8112 C.3     1  UNL1        0.1498
     28 O          66.5257   91.8378   15.8793 O.3     1  UNL1       -0.3810
     29 C          65.6179   91.3207   13.3120 C.3     1  UNL1        0.1220
     30 H          67.2437   92.3440   15.4680 H       1  UNL1        0.2105
     31 C          59.6438   86.1834    7.9240 C.2     1  UNL1        0.0774
     32 O          60.1838   85.1751    6.9537 O.co2   1  UNL1       -0.5444
     33 O          58.2144   86.6277    7.8264 O.co2   1  UNL1       -0.5444
@<TRIPOS>UNITY_ATOM_ATTR
32 1
charge -1
@<TRIPOS>BOND
     1    14    15    1
     2    15    16   ar
     3    16    17   ar
     4    17     1    1
     5     1     2   ar
     6     2     3   ar
     7     3    31    1
     8    31    32   ar
     9    31    33   ar
    10     3     4   ar
    11     4     5    2
    12     4     6   ar
    13     6     7   ar
    14     7     8   ar
    15     8     9    1
    16     8    10   ar
    17    10    25    1
    18    25    26    1
    19    26    27    1
    20    27    28    1
    21    27    29    1
    22    10    11   ar
    23    11    12    1
    24    11    13   ar
    25    17    18   ar
    26    18    19    1
    27    18    20   ar
    28    20    21   ar
    29    21    22    1
    30    21    15   ar
    31    13     1   ar
    32    13     6   ar
    33    29    25    1
    34    14    23    1
    35    14    24    1
    36    28    30    1
@<TRIPOS>MOLECULE
*****
 33 36 0 0 0
SMALL
GASTEIGER

@<TRIPOS>ATOM
      1 N          64.2841   88.5783   14.0507 N.ar    1  UNL1       -0.2874
      2 C          65.1014   89.4867   14.9206 C.ar    1  UNL1        0.0858
      3 C          65.3231   90.9137   14.5153 C.ar    1  UNL1        0.0705
      4 C          64.7274   91.4325   13.2401 C.ar    1  UNL1        0.1996
      5 O          64.9492   92.8596   12.8348 O.2     1  UNL1       -0.2864
      6 C          63.9101   90.5241   12.3702 C.ar    1  UNL1        0.0583
      7 C          63.3144   91.0428   11.0950 C.ar    1  UNL1        0.0356
      8 C          62.4971   90.1345   10.2251 C.ar    1  UNL1        0.1543
      9 F          61.9014   90.6532    8.9499 F       1  UNL1       -0.2028
     10 C          62.2753   88.7073   10.6304 C.ar    1  UNL1        0.0879
     11 C          62.8710   88.1886   11.9056 C.ar    1  UNL1        0.0893
     12 CL         62.6493   86.7616   12.3109 Cl      1  UNL1       -0.0794
     13 C          63.6884   89.0970   12.7755 C.ar    1  UNL1        0.0803
     14 N          64.6937   83.4978   13.0404 N.pl3   1  UNL1       -0.3408
     15 C          64.2671   84.6109   13.9508 C.ar    1  UNL1        0.1548
     16 N          64.4889   86.0381   13.5455 N.ar    1  UNL1       -0.2091
     17 C          64.0623   87.1512   14.4560 C.ar    1  UNL1        0.1769
     18 C          63.4140   86.8373   15.7717 C.ar    1  UNL1        0.1767
     19 F          62.9874   87.9505   16.6821 F       1  UNL1       -0.2009
     20 C          63.1923   85.4102   16.1770 C.ar    1  UNL1        0.0652
     21 C          63.6188   84.2970   15.2665 C.ar    1  UNL1        0.1734
     22 F          63.3971   82.8700   15.6718 F       1  UNL1       -0.2012
     23 H          65.1192   83.7038   12.1768 H       1  UNL1        0.1438
     24 H          64.5482   82.5611   13.3064 H       1  UNL1        0.1438
     25 N          61.4580   87.7990    9.7605 N.pl3   1  UNL1       -0.3004
     26 C          60.0198   87.7467    9.3375 C.3     1  UNL1        0.1220
     27 C          60.3020   86.5144    8.5302 C.3     1  UNL1        0.1498
     28 O          59.4846   85.6059    7.6603 O.3     1  UNL1       -0.3810
     29 C          61.7402   86.5666    8.9532 C.3     1  UNL1        0.1220
     30 H          60.0501   84.9014    7.3071 H       1  UNL1        0.2105
     31 C          66.1405   91.8222   15.3852 C.2     1  UNL1        0.0774
     32 O          67.6372   91.7243   15.3743 O.co2   1  UNL1       -0.5444
     33 O          65.4611   92.8284   16.2660 O.co2   1  UNL1       -0.5444
@<TRIPOS>UNITY_ATOM_ATTR
32 1
charge -1
@<TRIPOS>BOND
     1    14    15    1
     2    15    16   ar
     3    16    17   ar
     4    17     1    1
     5     1     2   ar
     6     2     3   ar
     7     3    31    1
     8    31    32   ar
     9    31    33   ar
    10     3     4   ar
    11     4     5    2
    12     4     6   ar
    13     6     7   ar
    14     7     8   ar
    15     8     9    1
    16     8    10   ar
    17    10    25    1
    18    25    26    1
    19    26    27    1
    20    27    28    1
    21    27    29    1
    22    10    11   ar
    23    11    12    1
    24    11    13   ar
    25    17    18   ar
    26    18    19    1
    27    18    20   ar
    28    20    21   ar
    29    21    22    1
    30    21    15   ar
    31    13     1   ar
    32    13     6   ar
    33    29    25    1
    34    14    23    1
    35    14    24    1
    36    28    30    1
@<TRIPOS>MOLECULE
*****
 33 36 0 0 0
SMALL
GASTEIGER

@<TRIPOS>ATOM
      1 N          66.6423   93.1182   12.5696 N.ar    1  UNL1       -0.2874
      2 C          67.6378   93.5449   13.6073 C.ar    1  UNL1        0.0858
      3 C          67.4918   93.0756   15.0245 C.ar    1  UNL1        0.0705
      4 C          66.3502   92.1796   15.4039 C.ar    1  UNL1        0.1996
      5 O          66.2042   91.7103   16.8212 O.2     1  UNL1       -0.2864
      6 C          65.3547   91.7529   14.3663 C.ar    1  UNL1        0.0583
      7 C          64.2132   90.8569   14.7458 C.ar    1  UNL1        0.0356
      8 C          63.2176   90.4302   13.7081 C.ar    1  UNL1        0.1543
      9 F          62.0761   89.5342   14.0876 F       1  UNL1       -0.2028
     10 C          63.3636   90.8995   12.2908 C.ar    1  UNL1        0.0879
     11 C          64.5052   91.7955   11.9114 C.ar    1  UNL1        0.0893
     12 CL         64.6512   92.2648   10.4942 Cl      1  UNL1       -0.0794
     13 C          65.5007   92.2222   12.9491 C.ar    1  UNL1        0.0803
     14 N          65.4736   96.5079    8.8087 N.pl3   1  UNL1       -0.3408
     15 C          66.2039   95.2824    9.2719 C.ar    1  UNL1        0.1548
     16 N          66.0579   94.8131   10.6892 N.ar    1  UNL1       -0.2091
     17 C          66.7883   93.5876   11.1524 C.ar    1  UNL1        0.1769
     18 C          67.6647   92.8313   10.1984 C.ar    1  UNL1        0.1767
     19 F          68.3950   91.6057   10.6617 F       1  UNL1       -0.2009
     20 C          67.8107   93.3005    8.7813 C.ar    1  UNL1        0.0652
     21 C          67.0803   94.5261    8.3180 C.ar    1  UNL1        0.1734
     22 F          67.2263   94.9954    6.9008 F       1  UNL1       -0.2012
     23 H          64.8984   97.0043    9.4348 H       1  UNL1        0.1438
     24 H          65.5694   96.8159    7.8785 H       1  UNL1        0.1438
     25 N          62.3681   90.4728   11.2532 N.pl3   1  UNL1       -0.3004
     26 C          62.3968   89.5473   10.0731 C.3     1  UNL1        0.1220
     27 C          60.9602   89.8693    9.7857 C.3     1  UNL1        0.1498
     28 O          59.9646   89.4426    8.7479 O.3     1  UNL1       -0.3810
     29 C          60.9315   90.7948   10.9658 C.3     1  UNL1        0.1220
     30 H          59.1183   89.8885    8.9092 H       1  UNL1        0.2105
     31 C          68.4873   93.5023   16.0622 C.2     1  UNL1        0.0774
     32 O          68.6329   94.9542   16.4097 O.co2   1  UNL1       -0.5444
     33 O          69.3373   92.4771   16.7525 O.co2   1  UNL1       -0.5444
@<TRIPOS>UNITY_ATOM_ATTR
32 1
charge -1
@<TRIPOS>BOND
     1    14    15    1
     2    15    16   ar
     3    16    17   ar
     4    17     1    1
     5     1     2   ar
     6     2     3   ar
     7     3    31    1
     8    31    32   ar
     9    31    33   ar
    10     3     4   ar
    11     4     5    2
    12     4     6   ar
    13     6     7   ar
    14     7     8   ar
    15     8     9    1
    16     8    10   ar
    17    10    25    1
    18    25    26    1
    19    26    27    1
    20    27    28    1
    21    27    29    1
    22    10    11   ar
    23    11    12    1
    24    11    13   ar
    25    17    18   ar
    26    18    19    1
    27    18    20   ar
    28    20    21   ar
    29    21    22    1
    30    21    15   ar
    31    13     1   ar
    32    13     6   ar
    33    29    25    1
    34    14    23    1
    35    14    24    1
    36    28    30    1
@<TRIPOS>MOLECULE
*****
 33 36 0 0 0
SMALL
GASTEIGER

@<TRIPOS>ATOM
      1 N          62.5112   84.6720   11.8717 N.ar    1  UNL1       -0.2874
      2 C          62.3483   83.2384   12.2817 C.ar    1  UNL1        0.0858
      3 C          62.7575   82.8005   13.6567 C.ar    1  UNL1        0.0705
      4 C          63.3295   83.7963   14.6218 C.ar    1  UNL1        0.1996
      5 O          63.7387   83.3584   15.9969 O.2     1  UNL1       -0.2864
      6 C          63.4924   85.2299   14.2117 C.ar    1  UNL1        0.0583
      7 C          64.0645   86.2257   15.1767 C.ar    1  UNL1        0.0356
      8 C          64.2273   87.6593   14.7667 C.ar    1  UNL1        0.1543
      9 F          64.7994   88.6550   15.7317 F       1  UNL1       -0.2028
     10 C          63.8181   88.0972   13.3916 C.ar    1  UNL1        0.0879
     11 C          63.2461   87.1015   12.4266 C.ar    1  UNL1        0.0893
     12 CL         62.8369   87.5393   11.0515 Cl      1  UNL1       -0.0794
     13 C          63.0832   85.6678   12.8367 C.ar    1  UNL1        0.0803
     14 N          59.1655   87.1179    8.7373 N.pl3   1  UNL1       -0.3408
     15 C          60.4291   86.3329    8.9294 C.ar    1  UNL1        0.1548
     16 N          60.8383   85.8950   10.3045 N.ar    1  UNL1       -0.2091
     17 C          62.1020   85.1100   10.4966 C.ar    1  UNL1        0.1769
     18 C          62.9565   84.7629    9.3136 C.ar    1  UNL1        0.1767
     19 F          64.2201   83.9778    9.5058 F       1  UNL1       -0.2009
     20 C          62.5473   85.2008    7.9386 C.ar    1  UNL1        0.0652
     21 C          61.2836   85.9858    7.7464 C.ar    1  UNL1        0.1734
     22 F          60.8745   86.4237    6.3714 F       1  UNL1       -0.2012
     23 H          58.6047   87.3457    9.5137 H       1  UNL1        0.1438
     24 H          58.8969   87.4053    7.8348 H       1  UNL1        0.1438
     25 N          63.9810   89.5308   12.9816 N.pl3   1  UNL1       -0.3004
     26 C          63.3404   90.4205   11.9578 C.3     1  UNL1        0.1220
     27 C          64.2113   91.5583   12.4017 C.3     1  UNL1        0.1498
     28 O          64.3742   92.9920   11.9916 O.3     1  UNL1       -0.3810
     29 C          64.8519   90.6686   13.4254 C.3     1  UNL1        0.1220
     30 H          65.0609   93.4079   12.5360 H       1  UNL1        0.2105
     31 C          62.5946   81.3669   14.0668 C.2     1  UNL1        0.0774
     32 O          63.8043   80.5085   14.2896 O.co2   1  UNL1       -0.5444
     33 O          61.2220   80.7917   14.2542 O.co2   1  UNL1       -0.5444
@<TRIPOS>UNITY_ATOM_ATTR
32 1
charge -1
@<TRIPOS>BOND
     1    14    15    1
     2    15    16   ar
     3    16    17   ar
     4    17     1    1
     5     1     2   ar
     6     2     3   ar
     7     3    31    1
     8    31    32   ar
     9    31    33   ar
    10     3     4   ar
    11     4     5    2
    12     4     6   ar
    13     6     7   ar
    14     7     8   ar
    15     8     9    1
    16     8    10   ar
    17    10    25    1
    18    25    26    1
    19    26    27    1
    20    27    28    1
    21    27    29    1
    22    10    11   ar
    23    11    12    1
    24    11    13   ar
    25    17    18   ar
    26    18    19    1
    27    18    20   ar
    28    20    21   ar
    29    21    22    1
    30    21    15   ar
    31    13     1   ar
    32    13     6   ar
    33    29    25    1
    34    14    23    1
    35    14    24    1
    36    28    30    1
