@<TRIPOS>MOLECULE
*****
 55 62 0 0 0
SMALL
GASTEIGER

@<TRIPOS>ATOM
      1 C          62.2952   95.6599   -4.0209 C.3     1  UNL1        0.1445
      2 C          63.6361   95.2500   -3.4881 C.3     1  UNL1        0.0322
      3 C          63.7338   94.5327   -2.1743 C.3     1  UNL1        0.0049
      4 C          65.0748   94.1228   -1.6416 C.3     1  UNL1        0.0002
      5 C          62.4906   94.2255   -1.3932 C.3     1  UNL1        0.0298
      6 C          61.1497   94.6354   -1.9260 C.3     1  UNL1        0.1418
      7 O          61.0519   95.3526   -3.2398 O.3     1  UNL1       -0.3537
      8 C          60.1063   94.1996   -0.9404 C.3     1  UNL1        0.1373
      9 O          58.6267   94.4067   -1.0733 O.3     1  UNL1       -0.3820
     10 C          60.8024   93.5203    0.2015 C.3     1  UNL1        0.0272
     11 C          59.3105   93.5796    0.3449 C.3     1  UNL1        0.0025
     12 C          60.2849   92.8892    1.4601 C.3     1  UNL1        0.0023
     13 C          58.8114   92.8732    1.7400 C.3     1  UNL1        0.0001
     14 C          58.2938   92.2421    2.9985 C.3     1  UNL1        0.0001
     15 C          59.2498   91.6270    3.9771 C.3     1  UNL1        0.0023
     16 C          58.7323   90.9959    5.2356 C.3     1  UNL1        0.0251
     17 C          57.7662   90.5212    6.2803 C.3     1  UNL1        0.0024
     18 C          57.4408   91.4461    4.6198 C.3     1  UNL1        0.0024
     19 C          59.6884   90.3808    6.2143 C.3     1  UNL1        0.1177
     20 C          61.1619   90.3969    5.9344 C.3     1  UNL1        0.0296
     21 C          61.6794   91.0280    4.6758 C.3     1  UNL1        0.0025
     22 C          60.7234   91.6430    3.6972 C.3     1  UNL1        0.0002
     23 C          62.1970   91.6591    3.4173 C.3     1  UNL1        0.0000
     24 C          61.2410   92.2741    2.4387 C.3     1  UNL1        0.0001
     25 C          62.7145   92.2901    2.1588 C.3     1  UNL1        0.0000
     26 C          63.2321   92.9212    0.9003 C.3     1  UNL1        0.0002
     27 C          62.2761   93.5363   -0.0783 C.3     1  UNL1        0.0046
     28 C          63.7151   93.6274   -0.4918 C.3     1  UNL1        0.0002
     29 H          58.1769   94.0311   -0.3002 H       1  UNL1        0.2104
     30 C          62.1974   96.3771   -5.3347 C.3     1  UNL1        0.1664
     31 C          63.4321   96.6163   -6.1523 C.3     1  UNL1        0.1156
     32 C          62.6469   96.3773   -7.4078 C.3     1  UNL1        0.0319
     33 C          64.2172   96.8553   -4.8967 C.3     1  UNL1        0.0319
     34 O          64.6667   96.8555   -6.9699 O.3     1  UNL1       -0.3843
     35 H          64.4542   96.7614   -7.9116 H       1  UNL1        0.2103
     36 O          60.8650   96.8551   -5.8308 O.3     1  UNL1       -0.3514
     37 C          58.8231   95.4022   -5.1459 C.3     1  UNL1        0.0346
     38 C          59.7980   95.8633   -6.1884 C.3     1  UNL1        0.1423
     39 O          59.1708   89.7498    7.4728 O.3     1  UNL1       -0.3320
     40 C          60.1149   89.0465    8.4023 C.3     1  UNL1        0.2518
     41 C          60.9499   89.8390    9.3641 C.3     1  UNL1        0.1343
     42 N          61.8941   89.1357   10.2936 N.3     1  UNL1       -0.2651
     43 C          62.0033   87.6400   10.2614 C.3     1  UNL1        0.1048
     44 C          61.1683   86.8476    9.2997 C.3     1  UNL1        0.1621
     45 O          60.2241   87.5508    8.3701 O.3     1  UNL1       -0.3280
     46 C          62.7290   89.9281   11.2553 C.3     1  UNL1        0.0898
     47 C          63.3721   89.6490   12.5814 C.3     1  UNL1        0.0897
     48 N          63.9099   91.0489   12.6154 N.3     1  UNL1       -0.2683
     49 C          63.2667   91.3280   11.2892 C.3     1  UNL1        0.0897
     50 C          64.7448   91.8414   13.5770 C.3     1  UNL1        0.0993
     51 C          66.2069   92.0443   13.3103 C.3     1  UNL1        0.1031
     52 C          66.5406   91.0518   14.3843 C.3     1  UNL1        0.0307
     53 C          65.8731   93.0368   12.2362 C.3     1  UNL1        0.0307
     54 O          67.6689   92.2472   13.0435 O.3     1  UNL1       -0.3854
     55 H          68.1876   91.6859   13.6408 H       1  UNL1        0.2103
@<TRIPOS>BOND
     1    37    38    1
     2    38    36    1
     3    30    36    1
     4    30     1    1
     5     1     2    1
     6     2     3    1
     7     3     4    1
     8     5     3    1
     9     5     6    1
    10     6     7    1
    11     6     8    1
    12     8     9    1
    13     8    10    1
    14    10    11    1
    15    10    12    1
    16    12    13    1
    17    13    14    1
    18    15    14    1
    19    15    16    1
    20    16    17    1
    21    16    18    1
    22    16    19    1
    23    19    39    1
    24    40    39    1
    25    40    41    1
    26    41    42    1
    27    42    46    1
    28    46    47    1
    29    47    48    1
    30    48    50    1
    31    50    51    1
    32    51    52    1
    33    51    53    1
    34    51    54    1
    35    48    49    1
    36    42    43    1
    37    43    44    1
    38    44    45    1
    39    19    20    1
    40    20    21    1
    41    22    21    1
    42    22    23    1
    43    24    23    1
    44    24    25    1
    45    25    26    1
    46    26    27    1
    47    27    28    1
    48    30    31    1
    49    31    32    1
    50    31    33    1
    51    31    34    1
    52     7     1    1
    53    27    10    1
    54    27     5    1
    55    24    12    1
    56    22    15    1
    57    45    40    1
    58    24    22    1
    59    49    46    1
    60     9    29    1
    61    54    55    1
    62    34    35    1
@<TRIPOS>MOLECULE
*****
 55 62 0 0 0
SMALL
GASTEIGER

@<TRIPOS>ATOM
      1 C          61.8501   95.6547   -4.2352 C.3     1  UNL1        0.1445
      2 C          63.2256   95.3327   -3.7310 C.3     1  UNL1        0.0322
      3 C          63.3984   94.6554   -2.4037 C.3     1  UNL1        0.0049
      4 C          64.7740   94.3334   -1.8996 C.3     1  UNL1        0.0002
      5 C          62.1957   94.3002   -1.5807 C.3     1  UNL1        0.0298
      6 C          60.8202   94.6222   -2.0849 C.3     1  UNL1        0.1418
      7 O          60.6473   95.2995   -3.4121 O.3     1  UNL1       -0.3537
      8 C          59.8296   94.1548   -1.0601 C.3     1  UNL1        0.1373
      9 O          58.3377   94.2768   -1.1560 O.3     1  UNL1       -0.3820
     10 C          60.5930   93.5439    0.0775 C.3     1  UNL1        0.0272
     11 C          59.1044   93.5247    0.2615 C.3     1  UNL1        0.0025
     12 C          60.1454   92.9174    1.3648 C.3     1  UNL1        0.0023
     13 C          58.6831   92.8275    1.6866 C.3     1  UNL1        0.0001
     14 C          58.2356   92.2010    2.9739 C.3     1  UNL1        0.0001
     15 C          59.2503   91.6643    3.9394 C.3     1  UNL1        0.0023
     16 C          58.8028   91.0378    5.2267 C.3     1  UNL1        0.0251
     17 C          57.8931   90.5373    6.3093 C.3     1  UNL1        0.0024
     18 C          57.4721   91.4007    4.6372 C.3     1  UNL1        0.0024
     19 C          59.8176   90.5012    6.1923 C.3     1  UNL1        0.1177
     20 C          61.2799   90.5911    5.8705 C.3     1  UNL1        0.0296
     21 C          61.7274   91.2176    4.5832 C.3     1  UNL1        0.0025
     22 C          60.7127   91.7542    3.6177 C.3     1  UNL1        0.0002
     23 C          62.1750   91.8441    3.2959 C.3     1  UNL1        0.0000
     24 C          61.1603   92.3807    2.3303 C.3     1  UNL1        0.0001
     25 C          62.6225   92.4706    2.0085 C.3     1  UNL1        0.0000
     26 C          63.0701   93.0971    0.7212 C.3     1  UNL1        0.0002
     27 C          62.0553   93.6337   -0.2443 C.3     1  UNL1        0.0046
     28 C          63.4754   93.7933   -0.7003 C.3     1  UNL1        0.0002
     29 H          57.9305   93.8968   -0.3618 H       1  UNL1        0.2104
     30 C          61.6772   96.3320   -5.5624 C.3     1  UNL1        0.1664
     31 C          60.3025   96.5367   -6.1265 C.3     1  UNL1        0.1156
     32 C          60.8181   96.2177   -7.4986 C.3     1  UNL1        0.0319
     33 C          59.7869   96.8557   -4.7545 C.3     1  UNL1        0.0319
     34 O          58.9278   96.7414   -6.6907 O.3     1  UNL1       -0.3843
     35 H          58.9458   96.5911   -7.6488 H       1  UNL1        0.2103
     36 O          62.8791   96.8045   -6.3254 O.3     1  UNL1       -0.3514
     37 C          63.4910   94.4203   -7.1566 C.3     1  UNL1        0.0346
     38 C          63.9047   95.8164   -6.7963 C.3     1  UNL1        0.1423
     39 O          59.3701   89.8747    7.4796 O.3     1  UNL1       -0.3320
     40 C          59.8239   88.4906    7.8377 C.3     1  UNL1        0.2518
     41 C          60.5855   88.2563    9.1086 C.3     1  UNL1        0.1343
     42 N          61.0394   86.8722    9.4666 N.3     1  UNL1       -0.2651
     43 C          60.7316   85.7223    8.5539 C.3     1  UNL1        0.1048
     44 C          59.9700   85.9566    7.2831 C.3     1  UNL1        0.1621
     45 O          59.5161   87.3407    6.9249 O.3     1  UNL1       -0.3280
     46 C          61.8010   86.6379   10.7374 C.3     1  UNL1        0.0898
     47 C          62.7430   87.4512   11.5748 C.3     1  UNL1        0.0897
     48 N          62.8781   86.3066   12.5348 N.3     1  UNL1       -0.2683
     49 C          61.9361   85.4933   11.6974 C.3     1  UNL1        0.0897
     50 C          63.6397   86.0723   13.8056 C.3     1  UNL1        0.0993
     51 C          63.7375   84.6890   14.3772 C.3     1  UNL1        0.1031
     52 C          64.5424   84.2546   13.1883 C.3     1  UNL1        0.0307
     53 C          62.9327   85.1233   15.5661 C.3     1  UNL1        0.0307
     54 O          63.8354   83.3056   14.9489 O.3     1  UNL1       -0.3854
     55 H          64.3472   82.7426   14.3472 H       1  UNL1        0.2103
@<TRIPOS>BOND
     1    37    38    1
     2    38    36    1
     3    30    36    1
     4    30     1    1
     5     1     2    1
     6     2     3    1
     7     3     4    1
     8     5     3    1
     9     5     6    1
    10     6     7    1
    11     6     8    1
    12     8     9    1
    13     8    10    1
    14    10    11    1
    15    10    12    1
    16    12    13    1
    17    13    14    1
    18    15    14    1
    19    15    16    1
    20    16    17    1
    21    16    18    1
    22    16    19    1
    23    19    39    1
    24    40    39    1
    25    40    41    1
    26    41    42    1
    27    42    46    1
    28    46    47    1
    29    47    48    1
    30    48    50    1
    31    50    51    1
    32    51    52    1
    33    51    53    1
    34    51    54    1
    35    48    49    1
    36    42    43    1
    37    43    44    1
    38    44    45    1
    39    19    20    1
    40    20    21    1
    41    22    21    1
    42    22    23    1
    43    24    23    1
    44    24    25    1
    45    25    26    1
    46    26    27    1
    47    27    28    1
    48    30    31    1
    49    31    32    1
    50    31    33    1
    51    31    34    1
    52     7     1    1
    53    27    10    1
    54    27     5    1
    55    24    12    1
    56    22    15    1
    57    45    40    1
    58    24    22    1
    59    49    46    1
    60     9    29    1
    61    54    55    1
    62    34    35    1
@<TRIPOS>MOLECULE
*****
 55 62 0 0 0
SMALL
GASTEIGER

@<TRIPOS>ATOM
      1 C          60.0716   89.4446    7.0759 C.3     1  UNL1        0.1445
      2 C          58.7369   90.0141    6.6962 C.3     1  UNL1        0.0322
      3 C          58.6198   90.9236    5.5090 C.3     1  UNL1        0.0049
      4 C          57.2850   91.4931    5.1294 C.3     1  UNL1        0.0002
      5 C          59.8374   91.2635    4.7017 C.3     1  UNL1        0.0298
      6 C          61.1721   90.6940    5.0814 C.3     1  UNL1        0.1418
      7 O          61.2892   89.7845    6.2684 O.3     1  UNL1       -0.3537
      8 C          62.1888   91.2040    4.1035 C.3     1  UNL1        0.1373
      9 O          63.6546   90.8853    4.1088 O.3     1  UNL1       -0.3820
     10 C          61.4825   92.0887    3.1195 C.3     1  UNL1        0.0272
     11 C          62.9561   91.9562    2.8726 C.3     1  UNL1        0.0025
     12 C          61.9749   92.8656    1.9346 C.3     1  UNL1        0.0023
     13 C          63.4281   92.8289    1.5649 C.3     1  UNL1        0.0001
     14 C          63.9204   93.6058    0.3800 C.3     1  UNL1        0.0001
     15 C          62.9596   94.4195   -0.4352 C.3     1  UNL1        0.0023
     16 C          63.4519   95.1964   -1.6201 C.3     1  UNL1        0.0251
     17 C          64.3913   95.7585   -2.6455 C.3     1  UNL1        0.0024
     18 C          64.7391   94.5779   -1.1610 C.3     1  UNL1        0.0024
     19 C          62.4910   96.0101   -2.4353 C.3     1  UNL1        0.1177
     20 C          61.0377   96.0468   -2.0657 C.3     1  UNL1        0.0296
     21 C          60.5454   95.2699   -0.8808 C.3     1  UNL1        0.0025
     22 C          61.5062   94.4562   -0.0655 C.3     1  UNL1        0.0002
     23 C          60.0530   94.4930    0.3041 C.3     1  UNL1        0.0000
     24 C          61.0139   93.6793    1.1194 C.3     1  UNL1        0.0001
     25 C          59.5607   93.7161    1.4890 C.3     1  UNL1        0.0000
     26 C          59.0683   92.9392    2.6740 C.3     1  UNL1        0.0002
     27 C          60.0292   92.1255    3.4892 C.3     1  UNL1        0.0046
     28 C          58.6121   92.0661    3.9775 C.3     1  UNL1        0.0002
     29 H          64.0874   91.3421    3.3707 H       1  UNL1        0.2104
     30 C          60.1887   88.5351    8.2630 C.3     1  UNL1        0.1664
     31 C          60.2029   89.1089    9.6488 C.3     1  UNL1        0.1156
     32 C          60.8112   90.3735    9.1191 C.3     1  UNL1        0.0319
     33 C          59.5946   87.8442   10.1786 C.3     1  UNL1        0.0319
     34 O          60.2171   89.6826   11.0347 O.3     1  UNL1       -0.3843
     35 H          60.5910   90.5773   11.0104 H       1  UNL1        0.2103
     36 O          60.2917   87.0519    8.0642 O.3     1  UNL1       -0.3514
     37 C          62.3776   85.5574    8.4706 C.3     1  UNL1        0.0346
     38 C          61.5734   86.4485    7.5711 C.3     1  UNL1        0.1423
     39 O          62.9833   96.7870   -3.6202 O.3     1  UNL1       -0.3320
     40 C          62.2657   96.6868   -4.9336 C.3     1  UNL1        0.2518
     41 C          60.7675   96.7475   -4.9761 C.3     1  UNL1        0.1343
     42 N          60.0498   96.6473   -6.2895 N.3     1  UNL1       -0.2651
     43 C          60.8303   96.4865   -7.5603 C.3     1  UNL1        0.1048
     44 C          62.3284   96.4258   -7.5178 C.3     1  UNL1        0.1621
     45 O          63.0462   96.5259   -6.2044 O.3     1  UNL1       -0.3280
     46 C          58.5517   96.7080   -6.3320 C.3     1  UNL1        0.0898
     47 C          57.4660   96.8434   -5.3058 C.3     1  UNL1        0.0897
     48 N          56.4328   96.7939   -6.3921 N.3     1  UNL1       -0.2683
     49 C          57.5185   96.6585   -7.4183 C.3     1  UNL1        0.0897
     50 C          54.9347   96.8546   -6.4346 C.3     1  UNL1        0.0993
     51 C          54.1249   96.1218   -5.4064 C.3     1  UNL1        0.1031
     52 C          52.8696   96.4576   -6.1557 C.3     1  UNL1        0.0307
     53 C          55.3802   95.7861   -4.6570 C.3     1  UNL1        0.0307
     54 O          53.3151   95.3891   -4.3781 O.3     1  UNL1       -0.3854
     55 H          52.3752   95.4359   -4.6133 H       1  UNL1        0.2103
@<TRIPOS>BOND
     1    37    38    1
     2    38    36    1
     3    30    36    1
     4    30     1    1
     5     1     2    1
     6     2     3    1
     7     3     4    1
     8     5     3    1
     9     5     6    1
    10     6     7    1
    11     6     8    1
    12     8     9    1
    13     8    10    1
    14    10    11    1
    15    10    12    1
    16    12    13    1
    17    13    14    1
    18    15    14    1
    19    15    16    1
    20    16    17    1
    21    16    18    1
    22    16    19    1
    23    19    39    1
    24    40    39    1
    25    40    41    1
    26    41    42    1
    27    42    46    1
    28    46    47    1
    29    47    48    1
    30    48    50    1
    31    50    51    1
    32    51    52    1
    33    51    53    1
    34    51    54    1
    35    48    49    1
    36    42    43    1
    37    43    44    1
    38    44    45    1
    39    19    20    1
    40    20    21    1
    41    22    21    1
    42    22    23    1
    43    24    23    1
    44    24    25    1
    45    25    26    1
    46    26    27    1
    47    27    28    1
    48    30    31    1
    49    31    32    1
    50    31    33    1
    51    31    34    1
    52     7     1    1
    53    27    10    1
    54    27     5    1
    55    24    12    1
    56    22    15    1
    57    45    40    1
    58    24    22    1
    59    49    46    1
    60     9    29    1
    61    54    55    1
    62    34    35    1
@<TRIPOS>MOLECULE
*****
 55 62 0 0 0
SMALL
GASTEIGER

@<TRIPOS>ATOM
      1 C          61.7552   95.5915   -3.7125 C.3     1  UNL1        0.1445
      2 C          63.1275   95.3349   -3.1641 C.3     1  UNL1        0.0322
      3 C          63.2898   94.6526   -1.8381 C.3     1  UNL1        0.0049
      4 C          64.6622   94.3960   -1.2898 C.3     1  UNL1        0.0002
      5 C          62.0798   94.2270   -1.0606 C.3     1  UNL1        0.0298
      6 C          60.7074   94.4836   -1.6090 C.3     1  UNL1        0.1418
      7 O          60.5451   95.1659   -2.9349 O.3     1  UNL1       -0.3537
      8 C          59.7080   93.9546   -0.6234 C.3     1  UNL1        0.1373
      9 O          58.2159   94.0010   -0.7696 O.3     1  UNL1       -0.3820
     10 C          60.4627   93.3710    0.5341 C.3     1  UNL1        0.0272
     11 C          58.9717   93.2735    0.6664 C.3     1  UNL1        0.0025
     12 C          60.0045   92.7081    1.7992 C.3     1  UNL1        0.0023
     13 C          58.5387   92.5397    2.0694 C.3     1  UNL1        0.0001
     14 C          58.0806   91.8768    3.3346 C.3     1  UNL1        0.0001
     15 C          59.0882   91.3821    4.3295 C.3     1  UNL1        0.0023
     16 C          58.6301   90.7192    5.5947 C.3     1  UNL1        0.0251
     17 C          57.7112   90.1607    6.6404 C.3     1  UNL1        0.0024
     18 C          57.3033   91.0198    4.9629 C.3     1  UNL1        0.0024
     19 C          59.6378   90.2246    6.5896 C.3     1  UNL1        0.1177
     20 C          61.1036   90.3929    6.3194 C.3     1  UNL1        0.0296
     21 C          61.5618   91.0559    5.0543 C.3     1  UNL1        0.0025
     22 C          60.5541   91.5505    4.0594 C.3     1  UNL1        0.0002
     23 C          62.0199   91.7188    3.7891 C.3     1  UNL1        0.0000
     24 C          61.0123   92.2134    2.7942 C.3     1  UNL1        0.0001
     25 C          62.4781   92.3818    2.5240 C.3     1  UNL1        0.0000
     26 C          62.9362   93.0447    1.2589 C.3     1  UNL1        0.0002
     27 C          61.9286   93.5393    0.2639 C.3     1  UNL1        0.0046
     28 C          63.3532   93.7766   -0.1412 C.3     1  UNL1        0.0002
     29 H          57.8021   93.5918    0.0064 H       1  UNL1        0.2104
     30 C          61.5928   96.2738   -5.0385 C.3     1  UNL1        0.1664
     31 C          60.2324   96.3933   -5.6589 C.3     1  UNL1        0.1156
     32 C          59.6732   96.8510   -4.3444 C.3     1  UNL1        0.0319
     33 C          60.7916   95.9356   -6.9734 C.3     1  UNL1        0.0319
     34 O          58.8719   96.5128   -6.2793 O.3     1  UNL1       -0.3843
     35 H          58.2377   96.8177   -5.6116 H       1  UNL1        0.2103
     36 O          62.7910   96.8365   -5.7440 O.3     1  UNL1       -0.3514
     37 C          63.8959   94.6711   -6.6605 C.3     1  UNL1        0.0346
     38 C          64.0096   95.9858   -5.9475 C.3     1  UNL1        0.1423
     39 O          59.1797   89.5616    7.8548 O.3     1  UNL1       -0.3320
     40 C          60.1632   89.2769    8.9510 C.3     1  UNL1        0.2518
     41 C          61.3161   90.2077    9.1847 C.3     1  UNL1        0.1343
     42 N          62.2995   89.9230   10.2809 N.3     1  UNL1       -0.2651
     43 C          62.1302   88.7075   11.1434 C.3     1  UNL1        0.1048
     44 C          60.9774   87.7768   10.9098 C.3     1  UNL1        0.1621
     45 O          59.9938   88.0615    9.8135 O.3     1  UNL1       -0.3280
     46 C          63.4524   90.8538   10.5145 C.3     1  UNL1        0.0898
     47 C          63.8475   92.2043    9.9948 C.3     1  UNL1        0.0897
     48 N          65.0828   92.1701   10.8450 N.3     1  UNL1       -0.2683
     49 C          64.6877   90.8196   11.3647 C.3     1  UNL1        0.0897
     50 C          66.2356   93.1009   11.0786 C.3     1  UNL1        0.0993
     51 C          65.9912   94.4731   11.6329 C.3     1  UNL1        0.1031
     52 C          65.7045   94.9804   10.2507 C.3     1  UNL1        0.0307
     53 C          66.2780   93.9659   13.0151 C.3     1  UNL1        0.0307
     54 O          65.7469   95.8454   12.1872 O.3     1  UNL1       -0.3854
     55 H          65.5193   96.4504   11.4639 H       1  UNL1        0.2103
@<TRIPOS>BOND
     1    37    38    1
     2    38    36    1
     3    30    36    1
     4    30     1    1
     5     1     2    1
     6     2     3    1
     7     3     4    1
     8     5     3    1
     9     5     6    1
    10     6     7    1
    11     6     8    1
    12     8     9    1
    13     8    10    1
    14    10    11    1
    15    10    12    1
    16    12    13    1
    17    13    14    1
    18    15    14    1
    19    15    16    1
    20    16    17    1
    21    16    18    1
    22    16    19    1
    23    19    39    1
    24    40    39    1
    25    40    41    1
    26    41    42    1
    27    42    46    1
    28    46    47    1
    29    47    48    1
    30    48    50    1
    31    50    51    1
    32    51    52    1
    33    51    53    1
    34    51    54    1
    35    48    49    1
    36    42    43    1
    37    43    44    1
    38    44    45    1
    39    19    20    1
    40    20    21    1
    41    22    21    1
    42    22    23    1
    43    24    23    1
    44    24    25    1
    45    25    26    1
    46    26    27    1
    47    27    28    1
    48    30    31    1
    49    31    32    1
    50    31    33    1
    51    31    34    1
    52     7     1    1
    53    27    10    1
    54    27     5    1
    55    24    12    1
    56    22    15    1
    57    45    40    1
    58    24    22    1
    59    49    46    1
    60     9    29    1
    61    54    55    1
    62    34    35    1
