@<TRIPOS>MOLECULE
*****
 20 22 0 0 0
SMALL
GASTEIGER

@<TRIPOS>ATOM
      1 C          62.7341   89.7018   10.8193 C.ar    1  UNL1        0.0016
      2 C          63.1523   90.9216   10.0531 C.ar    1  UNL1        0.0001
      3 C          64.0696   91.9262   10.6851 C.ar    1  UNL1        0.0001
      4 C          64.5685   91.7110   12.0832 C.ar    1  UNL1        0.0030
      5 C          65.4858   92.7157   12.7151 C.ar    1  UNL1        0.0369
      6 C          65.9848   92.5004   14.1133 C.ar    1  UNL1        0.1387
      7 C          65.5664   91.2805   14.8794 C.ar    1  UNL1        0.0369
      8 C          64.6492   90.2760   14.2475 C.ar    1  UNL1        0.0031
      9 C          64.1502   90.4912   12.8493 C.ar    1  UNL1        0.0002
     10 C          63.2330   89.4866   12.2174 C.ar    1  UNL1        0.0001
     11 C          59.9197   88.1274    8.5061 C.ar    1  UNL1        0.1578
     12 C          59.9822   86.6879    8.9234 C.ar    1  UNL1        0.1356
     13 N          60.9620   86.2531    9.9727 N.ar    1  UNL1       -0.2391
     14 C          61.8793   87.2578   10.6046 C.ar    1  UNL1        0.0991
     15 C          61.8168   88.6972   10.1873 C.ar    1  UNL1        0.0222
     16 C          60.8370   89.1320    9.1380 C.ar    1  UNL1        0.0401
     17 C          59.3422   89.5799    6.4308 C.3     1  UNL1        0.2525
     18 O          58.9400   88.5622    7.4568 O.3     1  UNL1       -0.4699
     19 O          66.9020   93.5050   14.7452 O.3     1  UNL1       -0.4714
     20 C          67.6952   93.1345   15.9633 C.3     1  UNL1        0.2525
@<TRIPOS>BOND
     1    17    18    1
     2    18    11    1
     3    11    12   ar
     4    12    13   ar
     5    13    14   ar
     6    14    15   ar
     7    15     1    1
     8     1     2   ar
     9     2     3   ar
    10     3     4   ar
    11     4     5   ar
    12     5     6   ar
    13     6    19    1
    14    19    20    1
    15     6     7   ar
    16     7     8   ar
    17     8     9   ar
    18     9    10   ar
    19    15    16   ar
    20    16    11   ar
    21    10     1   ar
    22     9     4   ar
@<TRIPOS>MOLECULE
*****
 20 22 0 0 0
SMALL
GASTEIGER

@<TRIPOS>ATOM
      1 C          64.2023   89.4940   14.2350 C.ar    1  UNL1        0.0016
      2 C          63.5891   89.5922   12.8696 C.ar    1  UNL1        0.0001
      3 C          63.9164   90.7566   11.9825 C.ar    1  UNL1        0.0001
      4 C          64.8568   91.8228   12.4608 C.ar    1  UNL1        0.0030
      5 C          65.1841   92.9873   11.5736 C.ar    1  UNL1        0.0369
      6 C          66.1245   94.0535   12.0519 C.ar    1  UNL1        0.1387
      7 C          66.7377   93.9553   13.4174 C.ar    1  UNL1        0.0369
      8 C          66.4104   92.7909   14.3045 C.ar    1  UNL1        0.0031
      9 C          65.4700   91.7247   13.8262 C.ar    1  UNL1        0.0002
     10 C          65.1427   90.5602   14.7133 C.ar    1  UNL1        0.0001
     11 C          63.9487   85.7777   15.6042 C.ar    1  UNL1        0.1578
     12 C          63.2205   86.0007   16.8965 C.ar    1  UNL1        0.1356
     13 N          62.8195   87.3882   17.3016 N.ar    1  UNL1       -0.2391
     14 C          63.1468   88.5526   16.4144 C.ar    1  UNL1        0.0991
     15 C          63.8750   88.3296   15.1222 C.ar    1  UNL1        0.0222
     16 C          64.2760   86.9421   14.7170 C.ar    1  UNL1        0.0401
     17 C          64.6687   84.0905   13.7643 C.3     1  UNL1        0.2525
     18 O          64.3497   84.3902   15.1990 O.3     1  UNL1       -0.4699
     19 O          66.4518   95.2179   11.1648 O.3     1  UNL1       -0.4714
     20 C          67.1708   94.9937    9.8675 C.3     1  UNL1        0.2525
@<TRIPOS>BOND
     1    17    18    1
     2    18    11    1
     3    11    12   ar
     4    12    13   ar
     5    13    14   ar
     6    14    15   ar
     7    15     1    1
     8     1     2   ar
     9     2     3   ar
    10     3     4   ar
    11     4     5   ar
    12     5     6   ar
    13     6    19    1
    14    19    20    1
    15     6     7   ar
    16     7     8   ar
    17     8     9   ar
    18     9    10   ar
    19    15    16   ar
    20    16    11   ar
    21    10     1   ar
    22     9     4   ar
@<TRIPOS>MOLECULE
*****
 20 22 0 0 0
SMALL
GASTEIGER

@<TRIPOS>ATOM
      1 C          63.6729   90.2709   12.5576 C.ar    1  UNL1        0.0016
      2 C          63.1914   91.0369   11.3612 C.ar    1  UNL1        0.0001
      3 C          62.4484   90.3294   10.2670 C.ar    1  UNL1        0.0001
      4 C          62.1869   88.8559   10.3691 C.ar    1  UNL1        0.0030
      5 C          61.4439   88.1484    9.2747 C.ar    1  UNL1        0.0369
      6 C          61.1825   86.6749    9.3768 C.ar    1  UNL1        0.1387
      7 C          61.6640   85.9089   10.5733 C.ar    1  UNL1        0.0369
      8 C          62.4070   86.6164   11.6675 C.ar    1  UNL1        0.0031
      9 C          62.6685   88.0899   11.5654 C.ar    1  UNL1        0.0002
     10 C          63.4114   88.7974   12.6597 C.ar    1  UNL1        0.0001
     11 C          66.4946   92.3079   14.4651 C.ar    1  UNL1        0.1578
     12 C          65.9019   92.3932   15.8405 C.ar    1  UNL1        0.1356
     13 N          64.5663   91.7711   16.1215 N.ar    1  UNL1       -0.2391
     14 C          63.8233   91.0637   15.0272 C.ar    1  UNL1        0.0991
     15 C          64.4159   90.9783   13.6519 C.ar    1  UNL1        0.0222
     16 C          65.7516   91.6005   13.3709 C.ar    1  UNL1        0.0401
     17 C          68.7932   93.1783   15.3071 C.3     1  UNL1        0.2525
     18 O          67.8302   92.9300   14.1840 O.3     1  UNL1       -0.4699
     19 O          60.4395   85.9675    8.2826 O.3     1  UNL1       -0.4714
     20 C          59.2006   86.5801    7.6995 C.3     1  UNL1        0.2525
@<TRIPOS>BOND
     1    17    18    1
     2    18    11    1
     3    11    12   ar
     4    12    13   ar
     5    13    14   ar
     6    14    15   ar
     7    15     1    1
     8     1     2   ar
     9     2     3   ar
    10     3     4   ar
    11     4     5   ar
    12     5     6   ar
    13     6    19    1
    14    19    20    1
    15     6     7   ar
    16     7     8   ar
    17     8     9   ar
    18     9    10   ar
    19    15    16   ar
    20    16    11   ar
    21    10     1   ar
    22     9     4   ar
@<TRIPOS>MOLECULE
*****
 20 22 0 0 0
SMALL
GASTEIGER

@<TRIPOS>ATOM
      1 C          63.1454   89.8745   11.7664 C.ar    1  UNL1        0.0016
      2 C          63.4322   89.1657   13.0569 C.ar    1  UNL1        0.0001
      3 C          64.4007   89.7567   14.0380 C.ar    1  UNL1        0.0001
      4 C          65.0824   91.0566   13.7287 C.ar    1  UNL1        0.0030
      5 C          66.0509   91.6476   14.7099 C.ar    1  UNL1        0.0369
      6 C          66.7326   92.9475   14.4005 C.ar    1  UNL1        0.1387
      7 C          66.4457   93.6563   13.1100 C.ar    1  UNL1        0.0369
      8 C          65.4772   93.0653   12.1289 C.ar    1  UNL1        0.0031
      9 C          64.7956   91.7654   12.4382 C.ar    1  UNL1        0.0002
     10 C          63.8271   91.1744   11.4571 C.ar    1  UNL1        0.0001
     11 C          61.3990   87.2870    9.3160 C.ar    1  UNL1        0.1578
     12 C          60.2398   88.1014    8.8229 C.ar    1  UNL1        0.1356
     13 N          60.0492   89.5069    9.3110 N.ar    1  UNL1       -0.2391
     14 C          61.0177   90.0979   10.2922 C.ar    1  UNL1        0.0991
     15 C          62.1768   89.2835   10.7852 C.ar    1  UNL1        0.0222
     16 C          62.3674   87.8780   10.2971 C.ar    1  UNL1        0.0401
     17 C          62.9585   85.3978    8.4504 C.3     1  UNL1        0.2525
     18 O          61.5896   85.8815    8.8278 O.3     1  UNL1       -0.4699
     19 O          67.7011   93.5385   15.3816 O.3     1  UNL1       -0.4714
     20 C          68.8129   92.6984   15.9369 C.3     1  UNL1        0.2525
@<TRIPOS>BOND
     1    17    18    1
     2    18    11    1
     3    11    12   ar
     4    12    13   ar
     5    13    14   ar
     6    14    15   ar
     7    15     1    1
     8     1     2   ar
     9     2     3   ar
    10     3     4   ar
    11     4     5   ar
    12     5     6   ar
    13     6    19    1
    14    19    20    1
    15     6     7   ar
    16     7     8   ar
    17     8     9   ar
    18     9    10   ar
    19    15    16   ar
    20    16    11   ar
    21    10     1   ar
    22     9     4   ar
@<TRIPOS>MOLECULE
*****
 20 22 0 0 0
SMALL
GASTEIGER

@<TRIPOS>ATOM
      1 C          63.1385   90.3198   11.2795 C.ar    1  UNL1        0.0016
      2 C          63.7054   91.4196   10.4315 C.ar    1  UNL1        0.0001
      3 C          64.7121   92.3694   11.0098 C.ar    1  UNL1        0.0001
      4 C          65.1518   92.2194   12.4360 C.ar    1  UNL1        0.0030
      5 C          66.1586   93.1693   13.0143 C.ar    1  UNL1        0.0369
      6 C          66.5984   93.0193   14.4405 C.ar    1  UNL1        0.1387
      7 C          66.0314   91.9194   15.2884 C.ar    1  UNL1        0.0369
      8 C          65.0247   90.9696   14.7102 C.ar    1  UNL1        0.0031
      9 C          64.5850   91.1196   13.2839 C.ar    1  UNL1        0.0002
     10 C          63.5783   90.1698   12.7057 C.ar    1  UNL1        0.0001
     11 C          61.2264   86.9519   10.4129 C.ar    1  UNL1        0.1578
     12 C          60.1184   87.4702    9.5447 C.ar    1  UNL1        0.1356
     13 N          60.0170   88.9385    9.2548 N.ar    1  UNL1       -0.2391
     14 C          61.0238   89.8883    9.8331 C.ar    1  UNL1        0.0991
     15 C          62.1318   89.3699   10.7012 C.ar    1  UNL1        0.0222
     16 C          62.2331   87.9017   10.9911 C.ar    1  UNL1        0.0401
     17 C          62.4487   84.9625   11.5525 C.3     1  UNL1        0.2525
     18 O          61.3278   85.4836   10.7027 O.3     1  UNL1       -0.4699
     19 O          67.6050   93.9691   15.0188 O.3     1  UNL1       -0.4714
     20 C          68.7671   93.4418   15.8073 C.3     1  UNL1        0.2525
@<TRIPOS>BOND
     1    17    18    1
     2    18    11    1
     3    11    12   ar
     4    12    13   ar
     5    13    14   ar
     6    14    15   ar
     7    15     1    1
     8     1     2   ar
     9     2     3   ar
    10     3     4   ar
    11     4     5   ar
    12     5     6   ar
    13     6    19    1
    14    19    20    1
    15     6     7   ar
    16     7     8   ar
    17     8     9   ar
    18     9    10   ar
    19    15    16   ar
    20    16    11   ar
    21    10     1   ar
    22     9     4   ar
@<TRIPOS>MOLECULE
*****
 20 22 0 0 0
SMALL
GASTEIGER

@<TRIPOS>ATOM
      1 C          64.0386   88.7236   14.0840 C.ar    1  UNL1        0.0016
      2 C          63.3317   88.7929   12.7628 C.ar    1  UNL1        0.0001
      3 C          62.9507   87.5299   12.0490 C.ar    1  UNL1        0.0001
      4 C          63.2764   86.1976   12.6563 C.ar    1  UNL1        0.0030
      5 C          62.8953   84.9346   11.9424 C.ar    1  UNL1        0.0369
      6 C          63.2211   83.6023   12.5497 C.ar    1  UNL1        0.1387
      7 C          63.9280   83.5330   13.8710 C.ar    1  UNL1        0.0369
      8 C          64.3090   84.7960   14.5848 C.ar    1  UNL1        0.0031
      9 C          63.9833   86.1283   13.9775 C.ar    1  UNL1        0.0002
     10 C          64.3643   87.3913   14.6913 C.ar    1  UNL1        0.0001
     11 C          66.0272   92.0059   15.0947 C.ar    1  UNL1        0.1578
     12 C          65.1819   92.5126   16.2256 C.ar    1  UNL1        0.1356
     13 N          63.9556   91.7562   16.6427 N.ar    1  UNL1       -0.2391
     14 C          63.5744   90.4932   15.9287 C.ar    1  UNL1        0.0991
     15 C          64.4197   89.9866   14.7979 C.ar    1  UNL1        0.0222
     16 C          65.6461   90.7430   14.3809 C.ar    1  UNL1        0.0401
     17 C          68.0973   93.4505   15.7095 C.3     1  UNL1        0.2525
     18 O          67.2536   92.7623   14.6777 O.3     1  UNL1       -0.4699
     19 O          62.8400   82.3393   11.8359 O.3     1  UNL1       -0.4714
     20 C          62.8174   81.0359   12.5780 C.3     1  UNL1        0.2525
@<TRIPOS>BOND
     1    17    18    1
     2    18    11    1
     3    11    12   ar
     4    12    13   ar
     5    13    14   ar
     6    14    15   ar
     7    15     1    1
     8     1     2   ar
     9     2     3   ar
    10     3     4   ar
    11     4     5   ar
    12     5     6   ar
    13     6    19    1
    14    19    20    1
    15     6     7   ar
    16     7     8   ar
    17     8     9   ar
    18     9    10   ar
    19    15    16   ar
    20    16    11   ar
    21    10     1   ar
    22     9     4   ar
@<TRIPOS>MOLECULE
*****
 20 22 0 0 0
SMALL
GASTEIGER

@<TRIPOS>ATOM
      1 C          63.8661   90.5386   12.3674 C.ar    1  UNL1        0.0016
      2 C          63.8563   89.1612   12.9613 C.ar    1  UNL1        0.0001
      3 C          62.9711   88.0997   12.3787 C.ar    1  UNL1        0.0001
      4 C          62.0957   88.4155   11.2023 C.ar    1  UNL1        0.0030
      5 C          61.2104   87.3538   10.6198 C.ar    1  UNL1        0.0369
      6 C          60.3350   87.6696    9.4434 C.ar    1  UNL1        0.1387
      7 C          60.3449   89.0470    8.8495 C.ar    1  UNL1        0.0369
      8 C          61.2301   90.1086    9.4320 C.ar    1  UNL1        0.0031
      9 C          62.1055   89.7928   10.6084 C.ar    1  UNL1        0.0002
     10 C          62.9907   90.8544   11.1910 C.ar    1  UNL1        0.0001
     11 C          66.2624   93.6906   12.6378 C.ar    1  UNL1        0.1578
     12 C          66.5219   93.7235   14.1149 C.ar    1  UNL1        0.1356
     13 N          65.8961   92.6948   15.0094 N.ar    1  UNL1       -0.2391
     14 C          65.0109   91.6332   14.4269 C.ar    1  UNL1        0.0991
     15 C          64.7514   91.6002   12.9499 C.ar    1  UNL1        0.0222
     16 C          65.3772   92.6289   12.0554 C.ar    1  UNL1        0.0401
     17 C          66.0883   95.9039   11.2884 C.3     1  UNL1        0.2525
     18 O          66.8882   94.7193   11.7433 O.3     1  UNL1       -0.4699
     19 O          59.4498   86.6080    8.8608 O.3     1  UNL1       -0.4714
     20 C          59.7835   85.9998    7.5308 C.3     1  UNL1        0.2525
@<TRIPOS>BOND
     1    17    18    1
     2    18    11    1
     3    11    12   ar
     4    12    13   ar
     5    13    14   ar
     6    14    15   ar
     7    15     1    1
     8     1     2   ar
     9     2     3   ar
    10     3     4   ar
    11     4     5   ar
    12     5     6   ar
    13     6    19    1
    14    19    20    1
    15     6     7   ar
    16     7     8   ar
    17     8     9   ar
    18     9    10   ar
    19    15    16   ar
    20    16    11   ar
    21    10     1   ar
    22     9     4   ar
@<TRIPOS>MOLECULE
*****
 20 22 0 0 0
SMALL
GASTEIGER

@<TRIPOS>ATOM
      1 C          64.0290   90.6650   12.3814 C.ar    1  UNL1        0.0016
      2 C          63.9932   89.3197   13.0439 C.ar    1  UNL1        0.0001
      3 C          63.0894   88.2464   12.5137 C.ar    1  UNL1        0.0001
      4 C          62.2213   88.5184   11.3210 C.ar    1  UNL1        0.0030
      5 C          61.3175   87.4450   10.7908 C.ar    1  UNL1        0.0369
      6 C          60.4495   87.7170    9.5981 C.ar    1  UNL1        0.1387
      7 C          60.4852   89.0624    8.9356 C.ar    1  UNL1        0.0369
      8 C          61.3890   90.1357    9.4658 C.ar    1  UNL1        0.0031
      9 C          62.2571   89.8637   10.6585 C.ar    1  UNL1        0.0002
     10 C          63.1609   90.9370   11.1887 C.ar    1  UNL1        0.0001
     11 C          66.3813   92.7124   14.8359 C.ar    1  UNL1        0.1578
     12 C          66.7404   93.8850   13.9720 C.ar    1  UNL1        0.1356
     13 N          66.1957   93.9842   12.5780 N.ar    1  UNL1       -0.2391
     14 C          65.2919   92.9108   12.0478 C.ar    1  UNL1        0.0991
     15 C          64.9328   91.7383   12.9116 C.ar    1  UNL1        0.0222
     16 C          65.4775   91.6391   14.3057 C.ar    1  UNL1        0.0401
     17 C          68.3930   92.3885   16.4478 C.3     1  UNL1        0.2525
     18 O          66.9260   92.6132   16.2300 O.3     1  UNL1       -0.4699
     19 O          59.5457   86.6438    9.0679 O.3     1  UNL1       -0.4714
     20 C          59.0340   86.7219    7.6600 C.3     1  UNL1        0.2525
@<TRIPOS>BOND
     1    17    18    1
     2    18    11    1
     3    11    12   ar
     4    12    13   ar
     5    13    14   ar
     6    14    15   ar
     7    15     1    1
     8     1     2   ar
     9     2     3   ar
    10     3     4   ar
    11     4     5   ar
    12     5     6   ar
    13     6    19    1
    14    19    20    1
    15     6     7   ar
    16     7     8   ar
    17     8     9   ar
    18     9    10   ar
    19    15    16   ar
    20    16    11   ar
    21    10     1   ar
    22     9     4   ar
@<TRIPOS>MOLECULE
*****
 20 22 0 0 0
SMALL
GASTEIGER

@<TRIPOS>ATOM
      1 C          62.2630   89.3832   10.4092 C.ar    1  UNL1        0.0016
      2 C          62.7231   90.7346    9.9488 C.ar    1  UNL1        0.0001
      3 C          63.6127   91.5633   10.8273 C.ar    1  UNL1        0.0001
      4 C          64.0422   91.0407   12.1661 C.ar    1  UNL1        0.0030
      5 C          64.9319   91.8695   13.0445 C.ar    1  UNL1        0.0369
      6 C          65.3614   91.3469   14.3833 C.ar    1  UNL1        0.1387
      7 C          64.9012   89.9954   14.8437 C.ar    1  UNL1        0.0369
      8 C          64.0117   89.1666   13.9652 C.ar    1  UNL1        0.0031
      9 C          63.5821   89.6893   12.6264 C.ar    1  UNL1        0.0002
     10 C          62.6925   88.8605   11.7480 C.ar    1  UNL1        0.0001
     11 C          60.9874   86.4332    8.0810 C.ar    1  UNL1        0.1578
     12 C          59.5942   86.8966    7.7738 C.ar    1  UNL1        0.1356
     13 N          59.0906   88.1889    8.3451 N.ar    1  UNL1       -0.2391
     14 C          59.9803   89.0178    9.2236 C.ar    1  UNL1        0.0991
     15 C          61.3734   88.5543    9.5307 C.ar    1  UNL1        0.0222
     16 C          61.8769   87.2620    8.9594 C.ar    1  UNL1        0.0401
     17 C          62.9152   84.7266    7.7331 C.3     1  UNL1        0.2525
     18 O          61.4910   85.1409    7.5096 O.3     1  UNL1       -0.4699
     19 O          66.2510   92.1756   15.2618 O.3     1  UNL1       -0.4714
     20 C          67.1698   93.1928   14.6524 C.3     1  UNL1        0.2525
@<TRIPOS>BOND
     1    17    18    1
     2    18    11    1
     3    11    12   ar
     4    12    13   ar
     5    13    14   ar
     6    14    15   ar
     7    15     1    1
     8     1     2   ar
     9     2     3   ar
    10     3     4   ar
    11     4     5   ar
    12     5     6   ar
    13     6    19    1
    14    19    20    1
    15     6     7   ar
    16     7     8   ar
    17     8     9   ar
    18     9    10   ar
    19    15    16   ar
    20    16    11   ar
    21    10     1   ar
    22     9     4   ar
