@<TRIPOS>MOLECULE
*****
 43 48 0 0 0
SMALL
GASTEIGER

@<TRIPOS>ATOM
      1 C          61.7189   89.6896    9.6980 C.ar    1  UNL1        0.0513
      2 C          60.3806   89.7575    9.0239 C.ar    1  UNL1        0.0147
      3 C          59.7058   88.4980    8.5677 C.ar    1  UNL1        0.0010
      4 C          60.3693   87.1705    8.7855 C.ar    1  UNL1       -0.0028
      5 C          61.7076   87.1026    9.4595 C.ar    1  UNL1       -0.0025
      6 C          62.3824   88.3621    9.9158 C.ar    1  UNL1        0.0119
      7 O          63.7209   89.5949   11.9301 O.2     1  UNL1       -0.2521
      8 C          63.3947   90.9019   11.2703 C.2     1  UNL1        0.3083
      9 N          62.3936   90.9492   10.1542 N.am    1  UNL1       -0.2681
     10 N          64.0694   92.1614   11.7266 N.am    1  UNL1       -0.2652
     11 H          62.1794   91.8070    9.7211 H       1  UNL1        0.1564
     12 H          63.8552   93.0192   11.2935 H       1  UNL1        0.1565
     13 C          65.0704   92.1140   12.8427 C.ar    1  UNL1        0.0928
     14 C          64.6679   91.5901   14.1894 C.ar    1  UNL1        0.1547
     15 F          63.2644   91.1136   14.4199 F       1  UNL1       -0.2028
     16 C          65.6689   91.5428   15.3055 C.ar    1  UNL1        0.0310
     17 C          67.0724   92.0193   15.0750 C.ar    1  UNL1        0.0037
     18 C          67.4749   92.5432   13.7284 C.ar    1  UNL1        0.0159
     19 C          66.4738   92.5906   12.6122 C.ar    1  UNL1        0.0638
     20 N          66.8764   93.1145   11.2655 N.pl3   1  UNL1       -0.3065
     21 C          66.5472   94.4693   10.7121 C.3     1  UNL1        0.0909
     22 C          67.1461   94.5677    9.3404 C.3     1  UNL1        0.0232
     23 C          67.8453   93.2738    9.0460 C.3     1  UNL1        0.0232
     24 C          67.6787   92.3757   10.2357 C.3     1  UNL1        0.0909
     25 C          62.3711   85.7750    9.6773 C.3     1  UNL1        0.1277
     26 C          62.6154   85.2784   11.0713 C.3     1  UNL1        0.2225
     27 N          63.2789   83.9508   11.2891 N.pl3   1  UNL1       -0.1902
     28 C          63.6982   83.1199   10.1127 C.3     1  UNL1        0.2195
     29 C          63.4539   83.6167    8.7186 C.3     1  UNL1        0.1239
     30 N          62.7904   84.9442    8.5008 N.3     1  UNL1       -0.2613
     31 C          63.5232   83.4541   12.6833 C.2     1  UNL1        0.3206
     32 N          64.1256   84.3669   13.7098 N.2     1  UNL1        0.0097
     33 C          64.3699   83.8703   15.1039 C.2     1  UNL1        0.4717
     34 N          64.0116   82.4608   15.4716 N.2     1  UNL1        0.0158
     35 C          63.4091   81.5480   14.4450 C.2     1  UNL1        0.3714
     36 N          62.9571   80.1194   14.5141 N.2     1  UNL1       -0.0339
     37 C          62.4335   79.7332   13.1626 C.2     1  UNL1        0.2323
     38 C          62.5619   80.9230   12.2582 C.2     1  UNL1        0.0486
     39 C          63.1649   82.0447   13.0509 C.3     1  UNL1        0.2428
     40 C          62.5461   85.4409    7.1067 C.3     1  UNL1        0.1046
     41 C          62.1976   84.4722    6.0157 C.3     1  UNL1        0.1544
     42 O          60.7696   84.0671    5.8003 O.3     1  UNL1       -0.3805
     43 H          60.4564   83.5653    6.5690 H       1  UNL1        0.2105
@<TRIPOS>BOND
     1     7     8    2
     2     8     9   am
     3     9     1    1
     4     1     2   ar
     5     2     3   ar
     6     3     4   ar
     7     4     5   ar
     8    25     5    1
     9    25    26    1
    10    26    27    1
    11    27    31    1
    12    31    32    2
    13    32    33    1
    14    33    34    2
    15    34    35    1
    16    35    36    2
    17    36    37    1
    18    37    38    2
    19    38    39    1
    20    27    28    1
    21    28    29    1
    22    29    30    1
    23    30    40    1
    24    40    41    1
    25    41    42    1
    26     5     6   ar
    27     8    10   am
    28    10    13    1
    29    13    14   ar
    30    14    15    1
    31    14    16   ar
    32    16    17   ar
    33    17    18   ar
    34    18    19   ar
    35    19    20    1
    36    20    21    1
    37    21    22    1
    38    22    23    1
    39    23    24    1
    40     6     1   ar
    41    19    13   ar
    42    24    20    1
    43    30    25    1
    44    39    31    1
    45    39    35    1
    46     9    11    1
    47    42    43    1
    48    10    12    1
@<TRIPOS>MOLECULE
*****
 43 48 0 0 0
SMALL
GASTEIGER

@<TRIPOS>ATOM
      1 C          61.6931   89.6777    9.5022 C.ar    1  UNL1        0.0513
      2 C          60.4171   89.7682    8.7186 C.ar    1  UNL1        0.0147
      3 C          59.7319   88.5174    8.2542 C.ar    1  UNL1        0.0010
      4 C          60.3225   87.1760    8.5732 C.ar    1  UNL1       -0.0028
      5 C          61.5984   87.0854    9.3567 C.ar    1  UNL1       -0.0025
      6 C          62.2837   88.3363    9.8211 C.ar    1  UNL1        0.0119
      7 O          63.6378   89.5639   11.7835 O.2     1  UNL1       -0.2521
      8 C          63.3507   90.8717   11.1073 C.2     1  UNL1        0.3083
      9 N          62.3783   90.9286    9.9666 N.am    1  UNL1       -0.2681
     10 N          64.0359   92.1225   11.5718 N.am    1  UNL1       -0.2652
     11 H          62.1898   91.7869    9.5227 H       1  UNL1        0.1564
     12 H          63.8475   92.9808   11.1280 H       1  UNL1        0.1565
     13 C          65.0084   92.0656   12.7126 C.ar    1  UNL1        0.0928
     14 C          64.5705   91.5352   14.0455 C.ar    1  UNL1        0.1547
     15 F          63.1602   91.0616   14.2378 F       1  UNL1       -0.2028
     16 C          65.5428   91.4783   15.1863 C.ar    1  UNL1        0.0310
     17 C          66.9531   91.9518   14.9940 C.ar    1  UNL1        0.0037
     18 C          67.3910   92.4822   13.6610 C.ar    1  UNL1        0.0159
     19 C          66.4185   92.5391   12.5203 C.ar    1  UNL1        0.0638
     20 N          66.8565   93.0696   11.1872 N.pl3   1  UNL1       -0.3065
     21 C          66.5262   94.4200   10.6240 C.3     1  UNL1        0.0909
     22 C          67.1671   94.5277    9.2721 C.3     1  UNL1        0.0232
     23 C          67.8935   93.2439    8.9999 C.3     1  UNL1        0.0232
     24 C          67.7015   92.3427   10.1835 C.3     1  UNL1        0.0909
     25 C          62.1890   85.7440    9.6756 C.3     1  UNL1        0.1277
     26 C          62.1929   85.2433   11.0895 C.3     1  UNL1        0.2225
     27 N          62.7835   83.9018   11.4085 N.pl3   1  UNL1       -0.1902
     28 C          63.3702   83.0611   10.3135 C.3     1  UNL1        0.2195
     29 C          63.3663   83.5619    8.8995 C.3     1  UNL1        0.1239
     30 N          62.7757   84.9033    8.5806 N.3     1  UNL1       -0.2613
     31 C          62.7874   83.4011   12.8225 C.2     1  UNL1        0.3206
     32 N          62.2569   82.0334   13.1352 N.2     1  UNL1        0.0097
     33 C          62.2608   81.5327   14.5491 C.2     1  UNL1        0.4717
     34 N          62.7953   82.3997   15.6504 N.2     1  UNL1        0.0158
     35 C          63.3258   83.7674   15.3376 C.2     1  UNL1        0.3714
     36 N          63.9118   84.8397   16.2075 N.2     1  UNL1       -0.0339
     37 C          64.2701   86.0031   15.3311 C.2     1  UNL1        0.2323
     38 C          63.9055   85.6499   13.9196 C.2     1  UNL1        0.0486
     39 C          63.3219   84.2681   13.9236 C.3     1  UNL1        0.2428
     40 C          62.7717   85.4040    7.1667 C.3     1  UNL1        0.1046
     41 C          62.3304   84.5017    6.0526 C.3     1  UNL1        0.1544
     42 O          60.8826   84.1353    5.9130 O.3     1  UNL1       -0.3805
     43 H          60.6100   83.5991    6.6739 H       1  UNL1        0.2105
@<TRIPOS>BOND
     1     7     8    2
     2     8     9   am
     3     9     1    1
     4     1     2   ar
     5     2     3   ar
     6     3     4   ar
     7     4     5   ar
     8    25     5    1
     9    25    26    1
    10    26    27    1
    11    27    31    1
    12    31    32    2
    13    32    33    1
    14    33    34    2
    15    34    35    1
    16    35    36    2
    17    36    37    1
    18    37    38    2
    19    38    39    1
    20    27    28    1
    21    28    29    1
    22    29    30    1
    23    30    40    1
    24    40    41    1
    25    41    42    1
    26     5     6   ar
    27     8    10   am
    28    10    13    1
    29    13    14   ar
    30    14    15    1
    31    14    16   ar
    32    16    17   ar
    33    17    18   ar
    34    18    19   ar
    35    19    20    1
    36    20    21    1
    37    21    22    1
    38    22    23    1
    39    23    24    1
    40     6     1   ar
    41    19    13   ar
    42    24    20    1
    43    30    25    1
    44    39    31    1
    45    39    35    1
    46     9    11    1
    47    42    43    1
    48    10    12    1
@<TRIPOS>MOLECULE
*****
 43 48 0 0 0
SMALL
GASTEIGER

@<TRIPOS>ATOM
      1 C          62.4958   87.3607   11.2026 C.ar    1  UNL1        0.0513
      2 C          61.0442   87.6829   11.0041 C.ar    1  UNL1        0.0147
      3 C          60.5138   89.0288   11.4002 C.ar    1  UNL1        0.0010
      4 C          61.4348   90.0526   11.9949 C.ar    1  UNL1       -0.0028
      5 C          62.8862   89.7304   12.1934 C.ar    1  UNL1       -0.0025
      6 C          63.4167   88.3844   11.7973 C.ar    1  UNL1        0.0119
      7 O          62.0485   84.9887   12.9839 O.2     1  UNL1       -0.2521
      8 C          62.8025   84.8286   11.6971 C.2     1  UNL1        0.3083
      9 N          63.0261   86.0147   10.8064 N.am    1  UNL1       -0.2681
     10 N          63.3328   83.4826   11.3010 N.am    1  UNL1       -0.2652
     11 H          63.5210   85.9097    9.9618 H       1  UNL1        0.1564
     12 H          63.8277   83.3776   10.4564 H       1  UNL1        0.1565
     13 C          63.1092   82.2965   12.1917 C.ar    1  UNL1        0.0928
     14 C          62.6053   81.0080   11.6123 C.ar    1  UNL1        0.1547
     15 F          62.3251   80.9055   10.1422 F       1  UNL1       -0.2028
     16 C          62.3817   79.8219   12.5029 C.ar    1  UNL1        0.0310
     17 C          62.6619   79.9244   13.9729 C.ar    1  UNL1        0.0037
     18 C          63.1658   81.2129   14.5523 C.ar    1  UNL1        0.0159
     19 C          63.3894   82.3990   13.6616 C.ar    1  UNL1        0.0638
     20 N          63.8933   83.6877   14.2411 N.pl3   1  UNL1       -0.3065
     21 C          63.2205   84.4962   15.3104 C.3     1  UNL1        0.0909
     22 C          64.0698   85.7021   15.5831 C.3     1  UNL1        0.0232
     23 C          65.2675   85.6389   14.6822 C.3     1  UNL1        0.0232
     24 C          65.1584   84.3939   13.8528 C.3     1  UNL1        0.0909
     25 C          63.8072   90.7542   12.7881 C.3     1  UNL1        0.1277
     26 C          64.4339   91.7981   11.9122 C.3     1  UNL1        0.2225
     27 N          65.3549   92.8219   12.5069 N.pl3   1  UNL1       -0.1902
     28 C          65.6492   92.8018   13.9776 C.3     1  UNL1        0.2195
     29 C          65.0224   91.7577   14.8536 C.3     1  UNL1        0.1239
     30 N          64.1014   90.7340   14.2589 N.3     1  UNL1       -0.2613
     31 C          65.9816   93.8659   11.6309 C.2     1  UNL1        0.3206
     32 N          65.6236   95.3111   11.8129 N.2     1  UNL1        0.0097
     33 C          66.2503   96.3550   10.9369 C.2     1  UNL1        0.4717
     34 N          67.2350   95.9538    9.8789 N.2     1  UNL1        0.0158
     35 C          67.5930   94.5086    9.6969 C.2     1  UNL1        0.3714
     36 N          68.5240   93.8173    8.7453 N.2     1  UNL1       -0.0339
     37 C          68.4726   92.3461    9.0333 C.2     1  UNL1        0.2323
     38 C          67.5099   92.1281   10.1628 C.2     1  UNL1        0.0486
     39 C          66.9663   93.4646   10.5729 C.3     1  UNL1        0.2428
     40 C          63.4747   89.6901   15.1348 C.3     1  UNL1        0.1046
     41 C          63.3719   89.9155   16.6143 C.3     1  UNL1        0.1544
     42 O          63.1569   88.7527   17.5370 O.3     1  UNL1       -0.3805
     43 H          62.2833   88.3652   17.3707 H       1  UNL1        0.2105
@<TRIPOS>BOND
     1     7     8    2
     2     8     9   am
     3     9     1    1
     4     1     2   ar
     5     2     3   ar
     6     3     4   ar
     7     4     5   ar
     8    25     5    1
     9    25    26    1
    10    26    27    1
    11    27    31    1
    12    31    32    2
    13    32    33    1
    14    33    34    2
    15    34    35    1
    16    35    36    2
    17    36    37    1
    18    37    38    2
    19    38    39    1
    20    27    28    1
    21    28    29    1
    22    29    30    1
    23    30    40    1
    24    40    41    1
    25    41    42    1
    26     5     6   ar
    27     8    10   am
    28    10    13    1
    29    13    14   ar
    30    14    15    1
    31    14    16   ar
    32    16    17   ar
    33    17    18   ar
    34    18    19   ar
    35    19    20    1
    36    20    21    1
    37    21    22    1
    38    22    23    1
    39    23    24    1
    40     6     1   ar
    41    19    13   ar
    42    24    20    1
    43    30    25    1
    44    39    31    1
    45    39    35    1
    46     9    11    1
    47    42    43    1
    48    10    12    1
@<TRIPOS>MOLECULE
*****
 43 48 0 0 0
SMALL
GASTEIGER

@<TRIPOS>ATOM
      1 C          61.2525   89.5598   10.5267 C.ar    1  UNL1        0.0513
      2 C          60.1478   89.7253    9.5254 C.ar    1  UNL1        0.0147
      3 C          59.7522   88.5748    8.6482 C.ar    1  UNL1        0.0010
      4 C          60.4611   87.2587    8.7721 C.ar    1  UNL1       -0.0028
      5 C          61.5657   87.0932    9.7733 C.ar    1  UNL1       -0.0025
      6 C          61.9614   88.2437   10.6506 C.ar    1  UNL1        0.0119
      7 O          64.1142   89.8941   11.3623 O.2     1  UNL1       -0.2521
      8 C          63.0790   90.8776   11.8217 C.2     1  UNL1        0.3083
      9 N          61.6481   90.7104   11.4039 N.am    1  UNL1       -0.2681
     10 N          63.4747   92.0281   12.6989 N.am    1  UNL1       -0.2652
     11 H          60.9686   91.3559   11.7054 H       1  UNL1        0.1564
     12 H          62.7953   92.6736   13.0004 H       1  UNL1        0.1565
     13 C          64.9057   92.1953   13.1167 C.ar    1  UNL1        0.0928
     14 C          65.7903   93.1654   12.3913 C.ar    1  UNL1        0.1547
     15 F          65.2440   93.9684   11.2481 F       1  UNL1       -0.2028
     16 C          67.2212   93.3326   12.8091 C.ar    1  UNL1        0.0310
     17 C          67.7675   92.5297   13.9522 C.ar    1  UNL1        0.0037
     18 C          66.8829   91.5595   14.6776 C.ar    1  UNL1        0.0159
     19 C          65.4519   91.3924   14.2598 C.ar    1  UNL1        0.0638
     20 N          64.5672   90.4222   14.9853 N.pl3   1  UNL1       -0.3065
     21 C          64.4364   88.9574   14.6898 C.3     1  UNL1        0.0909
     22 C          63.4465   88.3764   15.6554 C.3     1  UNL1        0.0232
     23 C          62.9655   89.4821   16.5476 C.3     1  UNL1        0.0232
     24 C          63.6581   90.7464   16.1335 C.3     1  UNL1        0.0909
     25 C          62.2745   85.7771    9.8973 C.3     1  UNL1        0.1277
     26 C          62.5804   85.2148   11.2538 C.3     1  UNL1        0.2225
     27 N          63.2893   83.8986   11.3777 N.pl3   1  UNL1       -0.1902
     28 C          63.6924   83.1448   10.1451 C.3     1  UNL1        0.2195
     29 C          63.3865   83.7072    8.7885 C.3     1  UNL1        0.1239
     30 N          62.6776   85.0233    8.6646 N.3     1  UNL1       -0.2613
     31 C          63.5952   83.3363   12.7343 C.2     1  UNL1        0.3206
     32 N          64.2846   84.1859   13.7603 N.2     1  UNL1        0.0097
     33 C          64.5905   83.6237   15.1168 C.2     1  UNL1        0.4717
     34 N          64.2069   82.2117   15.4474 N.2     1  UNL1        0.0158
     35 C          63.5175   81.3620   14.4214 C.2     1  UNL1        0.3714
     36 N          63.0229   79.9464   14.4587 N.2     1  UNL1       -0.0339
     37 C          62.4113   79.6339   13.1252 C.2     1  UNL1        0.2323
     38 C          62.5280   80.8563   12.2637 C.2     1  UNL1        0.0486
     39 C          63.2116   81.9243   13.0648 C.3     1  UNL1        0.2428
     40 C          62.3717   85.5856    7.3081 C.3     1  UNL1        0.1046
     41 C          62.1338   84.6627    6.1498 C.3     1  UNL1        0.1544
     42 O          60.7595   84.1191    5.8939 O.3     1  UNL1       -0.3805
     43 H          60.5023   83.5337    6.6233 H       1  UNL1        0.2105
@<TRIPOS>BOND
     1     7     8    2
     2     8     9   am
     3     9     1    1
     4     1     2   ar
     5     2     3   ar
     6     3     4   ar
     7     4     5   ar
     8    25     5    1
     9    25    26    1
    10    26    27    1
    11    27    31    1
    12    31    32    2
    13    32    33    1
    14    33    34    2
    15    34    35    1
    16    35    36    2
    17    36    37    1
    18    37    38    2
    19    38    39    1
    20    27    28    1
    21    28    29    1
    22    29    30    1
    23    30    40    1
    24    40    41    1
    25    41    42    1
    26     5     6   ar
    27     8    10   am
    28    10    13    1
    29    13    14   ar
    30    14    15    1
    31    14    16   ar
    32    16    17   ar
    33    17    18   ar
    34    18    19   ar
    35    19    20    1
    36    20    21    1
    37    21    22    1
    38    22    23    1
    39    23    24    1
    40     6     1   ar
    41    19    13   ar
    42    24    20    1
    43    30    25    1
    44    39    31    1
    45    39    35    1
    46     9    11    1
    47    42    43    1
    48    10    12    1
@<TRIPOS>MOLECULE
*****
 43 48 0 0 0
SMALL
GASTEIGER

@<TRIPOS>ATOM
      1 C          61.1257   87.9880   11.2959 C.ar    1  UNL1        0.0513
      2 C          60.2322   88.6214   10.2709 C.ar    1  UNL1        0.0147
      3 C          60.5057   90.0183    9.7981 C.ar    1  UNL1        0.0010
      4 C          61.6727   90.7820   10.3502 C.ar    1  UNL1       -0.0028
      5 C          62.5662   90.1487   11.3751 C.ar    1  UNL1       -0.0025
      6 C          62.2927   88.7517   11.8480 C.ar    1  UNL1        0.0119
      7 O          63.4034   86.1012   11.7974 O.2     1  UNL1       -0.2521
      8 C          61.9910   85.6476   12.0195 C.2     1  UNL1        0.3083
      9 N          60.8521   86.5911   11.7687 N.am    1  UNL1       -0.2681
     10 N          61.7176   84.2507   12.4923 N.am    1  UNL1       -0.2652
     11 H          59.9251   86.2934   11.9145 H       1  UNL1        0.1564
     12 H          60.7905   83.9529   12.6380 H       1  UNL1        0.1565
     13 C          62.8565   83.3072   12.7430 C.ar    1  UNL1        0.0928
     14 C          63.2136   82.2732   11.7167 C.ar    1  UNL1        0.1547
     15 F          62.4319   82.1827   10.4397 F       1  UNL1       -0.2028
     16 C          64.3525   81.3297   11.9674 C.ar    1  UNL1        0.0310
     17 C          65.1342   81.4202   13.2444 C.ar    1  UNL1        0.0037
     18 C          64.7771   82.4542   14.2707 C.ar    1  UNL1        0.0159
     19 C          63.6381   83.3977   14.0200 C.ar    1  UNL1        0.0638
     20 N          63.2809   84.4317   15.0463 N.pl3   1  UNL1       -0.3065
     21 C          62.0169   84.4736   15.8528 C.3     1  UNL1        0.0909
     22 C          62.0798   85.6731   16.7512 C.3     1  UNL1        0.0232
     23 C          63.3828   86.3725   16.5000 C.3     1  UNL1        0.0232
     24 C          64.1251   85.6053   15.4464 C.3     1  UNL1        0.0909
     25 C          63.7332   90.9124   11.9273 C.3     1  UNL1        0.1277
     26 C          64.6365   91.6734   11.0028 C.3     1  UNL1        0.2225
     27 N          65.8036   92.4372   11.5550 N.pl3   1  UNL1       -0.1902
     28 C          66.0672   92.4399   13.0316 C.3     1  UNL1        0.2195
     29 C          65.1638   91.6788   13.9561 C.3     1  UNL1        0.1239
     30 N          63.9968   90.9151   13.4040 N.3     1  UNL1       -0.2613
     31 C          66.7069   93.1982   10.6304 C.2     1  UNL1        0.3206
     32 N          67.9269   92.5367   10.0610 N.2     1  UNL1        0.0097
     33 C          68.8302   93.2977    9.1366 C.2     1  UNL1        0.4717
     34 N          68.5137   94.7203    8.7814 N.2     1  UNL1        0.0158
     35 C          67.2938   95.3818    9.3507 C.2     1  UNL1        0.3714
     36 N          66.7293   96.7614    9.1826 N.2     1  UNL1       -0.0339
     37 C          65.4771   96.8529   10.0033 C.2     1  UNL1        0.2323
     38 C          65.2676   95.5300   10.6786 C.2     1  UNL1        0.0486
     39 C          66.3904   94.6208   10.2753 C.3     1  UNL1        0.2428
     40 C          63.0935   90.1541   14.3284 C.3     1  UNL1        0.1046
     41 C          63.3642   90.1466   15.8038 C.3     1  UNL1        0.1544
     42 O          63.3374   91.4312   16.5778 O.3     1  UNL1       -0.3805
     43 H          64.0640   92.0019   16.2823 H       1  UNL1        0.2105
@<TRIPOS>BOND
     1     7     8    2
     2     8     9   am
     3     9     1    1
     4     1     2   ar
     5     2     3   ar
     6     3     4   ar
     7     4     5   ar
     8    25     5    1
     9    25    26    1
    10    26    27    1
    11    27    31    1
    12    31    32    2
    13    32    33    1
    14    33    34    2
    15    34    35    1
    16    35    36    2
    17    36    37    1
    18    37    38    2
    19    38    39    1
    20    27    28    1
    21    28    29    1
    22    29    30    1
    23    30    40    1
    24    40    41    1
    25    41    42    1
    26     5     6   ar
    27     8    10   am
    28    10    13    1
    29    13    14   ar
    30    14    15    1
    31    14    16   ar
    32    16    17   ar
    33    17    18   ar
    34    18    19   ar
    35    19    20    1
    36    20    21    1
    37    21    22    1
    38    22    23    1
    39    23    24    1
    40     6     1   ar
    41    19    13   ar
    42    24    20    1
    43    30    25    1
    44    39    31    1
    45    39    35    1
    46     9    11    1
    47    42    43    1
    48    10    12    1
