@<TRIPOS>MOLECULE
*****
 43 49 0 0 0
SMALL
GASTEIGER

@<TRIPOS>ATOM
      1 N          60.3345   94.0372   -0.4649 N.am    1  UNL1       -0.2222
      2 C          59.6890   93.3372    0.6942 C.2     1  UNL1        0.3219
      3 O          58.2157   93.1394    0.8953 O.2     1  UNL1       -0.2512
      4 N          60.7754   92.8698    1.6168 N.am    1  UNL1       -0.1907
      5 C          62.0923   93.2809    1.0280 C.2     1  UNL1        0.2529
      6 O          63.4444   93.0168    1.6214 O.2     1  UNL1       -0.2724
      7 C          61.8199   94.0024   -0.2586 C.3     1  UNL1        0.1391
      8 C          61.3949   94.6992   -1.5171 C.3     1  UNL1        0.0449
      9 C          62.4266   95.2833   -2.4359 C.3     1  UNL1        0.0746
     10 N          63.8833   95.1706   -2.0964 N.3     1  UNL1       -0.2676
     11 C          64.3083   94.4737   -0.8379 C.3     1  UNL1        0.0746
     12 C          63.2766   93.8896    0.0809 C.3     1  UNL1        0.0449
     13 C          58.5950   94.4688   -4.0058 C.ar    1  UNL1        0.2293
     14 C          59.3095   93.8438   -2.8444 C.ar    1  UNL1        0.0924
     15 C          59.6201   94.6623   -1.6264 C.ar    1  UNL1        0.1453
     16 N          59.2163   96.1058   -1.5698 N.ar    1  UNL1       -0.2084
     17 C          58.5019   96.7309   -2.7311 C.ar    1  UNL1        0.2027
     18 N          58.1913   95.9123   -3.9492 N.ar    1  UNL1       -0.1892
     19 C          57.3793   92.4591   -5.1160 C.3     1  UNL1        0.2542
     20 O          58.2844   93.6504   -5.2238 O.3     1  UNL1       -0.4560
     21 C          60.5793   92.1225    2.9025 C.ar    1  UNL1        0.0622
     22 C          61.7060   91.3203    3.4830 C.ar    1  UNL1        0.0154
     23 C          61.5099   90.5730    4.7688 C.ar    1  UNL1        0.0010
     24 C          60.1871   90.6279    5.4739 C.ar    1  UNL1       -0.0035
     25 C          59.0604   91.4301    4.8934 C.ar    1  UNL1        0.0010
     26 C          59.2566   92.1774    3.6076 C.ar    1  UNL1        0.0154
     27 C          59.9910   89.8806    6.7597 C.2     1  UNL1       -0.0161
     28 C          59.2364   88.5843    6.7661 C.2     1  UNL1       -0.0023
     29 C          59.0403   87.8370    8.0519 C.2     1  UNL1        0.0201
     30 C          59.5989   88.3861    9.3311 C.2     1  UNL1        0.0969
     31 N          59.5647   87.8765   10.7415 N.2     1  UNL1       -0.2228
     32 C          60.2983   88.8580   11.6068 C.2     1  UNL1        0.1986
     33 N          60.7858   89.9740   10.7312 N.2     1  UNL1       -0.2265
     34 C          60.3536   89.6823    9.3247 C.2     1  UNL1        0.0827
     35 C          60.5497   90.4296    8.0390 C.3     1  UNL1        0.0737
     36 C          64.9150   95.7547   -3.0153 C.3     1  UNL1        0.1183
     37 C          64.7557   95.6246   -4.5011 C.ar    1  UNL1        0.0712
     38 N          64.6595   96.8537   -5.3556 N.ar    1  UNL1       -0.2471
     39 C          64.5002   96.7235   -6.8415 C.ar    1  UNL1        0.0985
     40 C          64.4371   95.3644   -7.4728 C.ar    1  UNL1        0.0203
     41 C          64.5334   94.1353   -6.6183 C.ar    1  UNL1       -0.0015
     42 C          64.6927   94.2654   -5.1325 C.ar    1  UNL1       -0.0069
     43 C          64.7889   93.0363   -4.2780 C.3     1  UNL1        0.0323
@<TRIPOS>BOND
     1    19    20    1
     2    20    13    1
     3    13    14   ar
     4    14    15   ar
     5    15     1    1
     6     1     2   am
     7     2     3    2
     8     2     4   am
     9     4    21    1
    10    21    22   ar
    11    22    23   ar
    12    23    24   ar
    13    24    27    1
    14    27    28    2
    15    28    29    1
    16    29    30    2
    17    30    31    1
    18    31    32    2
    19    32    33    1
    20    33    34    2
    21    34    35    1
    22    24    25   ar
    23    25    26   ar
    24     4     5   am
    25     5     6    2
    26     5     7    1
    27     7     8    1
    28     8     9    1
    29     9    10    1
    30    10    36    1
    31    36    37    1
    32    37    38   ar
    33    38    39   ar
    34    39    40   ar
    35    40    41   ar
    36    41    42   ar
    37    42    43    1
    38    10    11    1
    39    11    12    1
    40    15    16   ar
    41    16    17   ar
    42    17    18   ar
    43    18    13   ar
    44     7     1    1
    45    42    37   ar
    46    26    21   ar
    47    12     7    1
    48    35    27    1
    49    34    30    1
