@<TRIPOS>MOLECULE
*****
 36 39 0 0 0
SMALL
GASTEIGER

@<TRIPOS>ATOM
      1 C          63.1686   88.9379   12.5865 C.2     1  UNL1        0.0732
      2 C          64.0723   88.6184   13.7403 C.2     1  UNL1        0.1887
      3 O          64.7167   89.6150   14.6577 O.2     1  UNL1       -0.5020
      4 C          64.2183   87.1275   13.8157 C.2     1  UNL1        0.2869
      5 O          65.0345   86.3713   14.8217 O.2     1  UNL1       -0.2662
      6 N          63.4049   86.5255   12.7084 N.am    1  UNL1       -0.2463
      7 C          62.7562   87.6444   11.9487 C.3     1  UNL1        0.1338
      8 H          64.5670   90.5315   14.5333 H       1  UNL1        0.2924
      9 C          63.2649   85.0615   12.4128 C.ar    1  UNL1        0.0548
     10 C          63.6537   84.5278   11.0660 C.ar    1  UNL1        0.0149
     11 C          63.5137   83.0640   10.7704 C.ar    1  UNL1        0.0018
     12 C          62.9849   82.1338   11.8216 C.ar    1  UNL1        0.0061
     13 C          62.5961   82.6675   13.1685 C.ar    1  UNL1        0.0018
     14 C          62.7361   84.1313   13.4640 C.ar    1  UNL1        0.0149
     15 C          62.8449   80.6698   11.5260 C.ar    1  UNL1        0.0295
     16 C          62.9696   80.0270   10.1764 C.ar    1  UNL1        0.0070
     17 C          62.7574   78.5516   10.3443 C.ar    1  UNL1        0.0075
     18 C          62.5015   78.2826   11.7977 C.ar    1  UNL1        0.0354
     19 S          62.5556   79.5917   12.5280 S.2     1  UNL1       -0.0864
     20 C          61.8535   87.4959   10.7600 C.ar    1  UNL1        0.0344
     21 C          62.4051   86.9989    9.4567 C.ar    1  UNL1        0.0007
     22 C          61.5024   86.8504    8.2680 C.ar    1  UNL1       -0.0001
     23 C          60.0479   87.1989    8.3826 C.ar    1  UNL1        0.0031
     24 C          59.4963   87.6960    9.6860 C.ar    1  UNL1        0.0366
     25 C          60.3990   87.8445   10.8747 C.ar    1  UNL1        0.1365
     26 O          59.8473   88.3415   12.1779 O.3     1  UNL1       -0.4730
     27 C          58.4788   88.9536   12.2284 C.3     1  UNL1        0.2370
     28 C          57.5412   88.6032   13.3455 C.3     1  UNL1        0.1847
     29 O          56.1147   88.2502   13.0446 O.3     1  UNL1       -0.3784
     30 H          55.6577   89.0275   12.6870 H       1  UNL1        0.2106
     31 C          62.7507   90.3100   12.1474 C.2     1  UNL1        0.1732
     32 O          61.3689   90.8070   12.4534 O.2     1  UNL1       -0.2915
     33 C          63.0936   90.7634   10.1037 C.3     1  UNL1        0.0077
     34 C          63.7146   91.1851   11.4024 C.3     1  UNL1        0.0554
     35 C          64.3355   91.6068   12.7011 C.3     1  UNL1        0.0077
     36 C          64.6785   92.0602   10.6574 C.3     1  UNL1        0.0077
@<TRIPOS>BOND
     1    33    34    1
     2    34    35    1
     3    34    36    1
     4    34    31    1
     5    31    32    2
     6    31     1    1
     7     1     2    2
     8     2     3    1
     9     2     4    1
    10     4     5    2
    11     4     6   am
    12     6     9    1
    13     9    10   ar
    14    10    11   ar
    15    11    12   ar
    16    12    15    1
    17    15    16   ar
    18    16    17   ar
    19    17    18   ar
    20    18    19   ar
    21    12    13   ar
    22    13    14   ar
    23     6     7    1
    24     7    20    1
    25    20    21   ar
    26    21    22   ar
    27    22    23   ar
    28    23    24   ar
    29    24    25   ar
    30    25    26    1
    31    26    27    1
    32    27    28    1
    33    28    29    1
    34     7     1    1
    35    25    20   ar
    36    14     9   ar
    37    19    15   ar
    38     3     8    1
    39    29    30    1
@<TRIPOS>MOLECULE
*****
 36 39 0 0 0
SMALL
GASTEIGER

@<TRIPOS>ATOM
      1 C          63.5378   95.3839   -1.7826 C.2     1  UNL1        0.0732
      2 C          63.7231   95.3684   -3.2711 C.2     1  UNL1        0.1887
      3 O          65.0339   95.2839   -3.9955 O.2     1  UNL1       -0.5020
      4 C          62.3676   95.4523   -3.9078 C.2     1  UNL1        0.2869
      5 O          62.0849   95.4663   -5.3809 O.2     1  UNL1       -0.2662
      6 N          61.3445   95.5196   -2.8130 N.am    1  UNL1       -0.2463
      7 C          62.0677   95.4774   -1.4995 C.3     1  UNL1        0.1338
      8 H          65.8345   95.2346   -3.5112 H       1  UNL1        0.2924
      9 C          59.8589   95.6128   -2.9989 C.ar    1  UNL1        0.0548
     10 C          59.1673   94.7093   -3.9763 C.ar    1  UNL1        0.0149
     11 C          57.6818   94.8026   -4.1622 C.ar    1  UNL1        0.0018
     12 C          56.8880   95.7993   -3.3708 C.ar    1  UNL1        0.0061
     13 C          57.5796   96.7028   -2.3935 C.ar    1  UNL1        0.0018
     14 C          59.0651   96.6096   -2.2075 C.ar    1  UNL1        0.0149
     15 C          55.4024   95.8925   -3.5568 C.ar    1  UNL1        0.0295
     16 C          54.3807   95.9818   -2.4622 C.ar    1  UNL1        0.0070
     17 C          53.0247   96.0573   -3.0989 C.ar    1  UNL1        0.0075
     18 C          53.2083   96.0147   -4.5870 C.ar    1  UNL1        0.0354
     19 S          54.6778   95.9129   -4.8700 S.2     1  UNL1       -0.0864
     20 C          61.4324   95.5209   -0.1414 C.ar    1  UNL1        0.0344
     21 C          61.3804   96.8114    0.6213 C.ar    1  UNL1        0.0007
     22 C          60.7452   96.8550    1.9795 C.ar    1  UNL1       -0.0001
     23 C          60.1618   95.6079    2.5749 C.ar    1  UNL1        0.0031
     24 C          60.2138   94.3173    1.8121 C.ar    1  UNL1        0.0366
     25 C          60.8491   94.2738    0.4540 C.ar    1  UNL1        0.1365
     26 O          60.9010   92.9833   -0.3086 O.3     1  UNL1       -0.4730
     27 C          59.6812   92.1146   -0.3970 C.3     1  UNL1        0.2370
     28 C          58.3962   92.6778   -0.9273 C.3     1  UNL1        0.1847
     29 O          57.1182   91.9085   -0.7690 O.3     1  UNL1       -0.3784
     30 H          57.1654   91.0923   -1.2910 H       1  UNL1        0.2106
     31 C          64.6306   95.3176   -0.7573 C.2     1  UNL1        0.1732
     32 O          65.8832   96.1218   -0.9430 O.2     1  UNL1       -0.2915
     33 C          64.3353   93.2427   -0.4298 C.3     1  UNL1        0.0077
     34 C          64.4710   94.4472    0.4538 C.3     1  UNL1        0.0554
     35 C          64.6067   95.6517    1.3374 C.3     1  UNL1        0.0077
     36 C          64.3113   93.5767    1.6649 C.3     1  UNL1        0.0077
@<TRIPOS>BOND
     1    33    34    1
     2    34    35    1
     3    34    36    1
     4    34    31    1
     5    31    32    2
     6    31     1    1
     7     1     2    2
     8     2     3    1
     9     2     4    1
    10     4     5    2
    11     4     6   am
    12     6     9    1
    13     9    10   ar
    14    10    11   ar
    15    11    12   ar
    16    12    15    1
    17    15    16   ar
    18    16    17   ar
    19    17    18   ar
    20    18    19   ar
    21    12    13   ar
    22    13    14   ar
    23     6     7    1
    24     7    20    1
    25    20    21   ar
    26    21    22   ar
    27    22    23   ar
    28    23    24   ar
    29    24    25   ar
    30    25    26    1
    31    26    27    1
    32    27    28    1
    33    28    29    1
    34     7     1    1
    35    25    20   ar
    36    14     9   ar
    37    19    15   ar
    38     3     8    1
    39    29    30    1
@<TRIPOS>MOLECULE
*****
 36 39 0 0 0
SMALL
GASTEIGER

@<TRIPOS>ATOM
      1 C          62.5861   83.6273   13.5509 C.2     1  UNL1        0.0732
      2 C          62.7757   83.8671   15.0195 C.2     1  UNL1        0.1887
      3 O          62.5492   82.8656   16.1129 O.2     1  UNL1       -0.5020
      4 C          63.2316   85.2844   15.2025 C.2     1  UNL1        0.2869
      5 O          63.5410   85.9489   16.5112 O.2     1  UNL1       -0.2662
      6 N          63.3237   85.9204   13.8472 N.am    1  UNL1       -0.2463
      7 C          62.9248   84.8963   12.8264 C.3     1  UNL1        0.1338
      8 H          62.2627   81.9987   15.9022 H       1  UNL1        0.2924
      9 C          63.7415   87.3328   13.5626 C.ar    1  UNL1        0.0548
     10 C          64.6052   88.0712   14.5417 C.ar    1  UNL1        0.0149
     11 C          65.0229   89.4834   14.2570 C.ar    1  UNL1        0.0018
     12 C          64.5768   90.1572   12.9933 C.ar    1  UNL1        0.0061
     13 C          63.7131   89.4189   12.0142 C.ar    1  UNL1        0.0018
     14 C          63.2954   88.0066   12.2989 C.ar    1  UNL1        0.0149
     15 C          64.9946   91.5696   12.7087 C.ar    1  UNL1        0.0295
     16 C          64.7433   92.3240   11.4368 C.ar    1  UNL1        0.0070
     17 C          65.3303   93.6961   11.5880 C.ar    1  UNL1        0.0075
     18 C          65.9443   93.7896   12.9534 C.ar    1  UNL1        0.0354
     19 S          65.7368   92.4754   13.6460 S.2     1  UNL1       -0.0864
     20 C          62.8736   85.1045   11.3419 C.ar    1  UNL1        0.0344
     21 C          63.8389   84.3824   10.4494 C.ar    1  UNL1        0.0007
     22 C          63.7876   84.5906    8.9648 C.ar    1  UNL1       -0.0001
     23 C          62.7710   85.5211    8.3726 C.ar    1  UNL1        0.0031
     24 C          61.8056   86.2433    9.2652 C.ar    1  UNL1        0.0366
     25 C          61.8568   86.0350   10.7497 C.ar    1  UNL1        0.1365
     26 O          60.8915   86.7572   11.6421 O.3     1  UNL1       -0.4730
     27 C          60.0822   87.8994   11.1030 C.3     1  UNL1        0.2370
     28 C          59.6077   88.9833   12.0249 C.3     1  UNL1        0.1847
     29 O          58.6333   88.6636   13.1196 O.3     1  UNL1       -0.3784
     30 H          57.7851   88.3988   12.7304 H       1  UNL1        0.2106
     31 C          62.1367   82.3437   12.9180 C.2     1  UNL1        0.1732
     32 O          61.4014   82.3692   11.6108 O.2     1  UNL1       -0.2915
     33 C          60.9689   80.8928   13.9333 C.3     1  UNL1        0.0077
     34 C          62.4227   81.0347   13.5922 C.3     1  UNL1        0.0554
     35 C          63.8764   81.1765   13.2512 C.3     1  UNL1        0.0077
     36 C          62.7086   79.7256   14.2665 C.3     1  UNL1        0.0077
@<TRIPOS>BOND
     1    33    34    1
     2    34    35    1
     3    34    36    1
     4    34    31    1
     5    31    32    2
     6    31     1    1
     7     1     2    2
     8     2     3    1
     9     2     4    1
    10     4     5    2
    11     4     6   am
    12     6     9    1
    13     9    10   ar
    14    10    11   ar
    15    11    12   ar
    16    12    15    1
    17    15    16   ar
    18    16    17   ar
    19    17    18   ar
    20    18    19   ar
    21    12    13   ar
    22    13    14   ar
    23     6     7    1
    24     7    20    1
    25    20    21   ar
    26    21    22   ar
    27    22    23   ar
    28    23    24   ar
    29    24    25   ar
    30    25    26    1
    31    26    27    1
    32    27    28    1
    33    28    29    1
    34     7     1    1
    35    25    20   ar
    36    14     9   ar
    37    19    15   ar
    38     3     8    1
    39    29    30    1
@<TRIPOS>MOLECULE
*****
 36 39 0 0 0
SMALL
GASTEIGER

@<TRIPOS>ATOM
      1 C          61.7014   94.2894   -4.1960 C.2     1  UNL1        0.0732
      2 C          61.5521   94.6181   -5.6520 C.2     1  UNL1        0.1887
      3 O          62.6406   94.5697   -6.6829 O.2     1  UNL1       -0.5020
      4 C          60.1232   95.0036   -5.8960 C.2     1  UNL1        0.2869
      5 O          59.5319   95.4085   -7.2137 O.2     1  UNL1       -0.2662
      6 N          59.3893   94.9132   -4.5908 N.am    1  UNL1       -0.2463
      7 C          60.3647   94.4718   -3.5403 C.3     1  UNL1        0.1338
      8 H          63.5082   94.3158   -6.4365 H       1  UNL1        0.2924
      9 C          57.9353   95.2118   -4.3744 C.ar    1  UNL1        0.0548
     10 C          57.5226   96.2273   -3.3505 C.ar    1  UNL1        0.0149
     11 C          56.0686   96.5259   -3.1341 C.ar    1  UNL1        0.0018
     12 C          55.0275   95.8090   -3.9415 C.ar    1  UNL1        0.0061
     13 C          55.4402   94.7935   -4.9654 C.ar    1  UNL1        0.0018
     14 C          56.8941   94.4949   -5.1818 C.ar    1  UNL1        0.0149
     15 C          53.5735   96.1076   -3.7250 C.ar    1  UNL1        0.0295
     16 C          52.8764   96.1811   -2.3988 C.ar    1  UNL1        0.0070
     17 C          51.4335   96.5041   -2.6508 C.ar    1  UNL1        0.0075
     18 C          51.2387   96.6301   -4.1329 C.ar    1  UNL1        0.0354
     19 S          52.5613   96.3851   -4.7967 S.2     1  UNL1       -0.0864
     20 C          60.0574   94.2514   -2.0887 C.ar    1  UNL1        0.0344
     21 C          60.7059   95.1124   -1.0456 C.ar    1  UNL1        0.0007
     22 C          60.3986   94.8920    0.4059 C.ar    1  UNL1       -0.0001
     23 C          59.4428   93.8106    0.8144 C.ar    1  UNL1        0.0031
     24 C          58.7942   92.9496   -0.2287 C.ar    1  UNL1        0.0366
     25 C          59.1015   93.1699   -1.6803 C.ar    1  UNL1        0.1365
     26 O          58.4530   92.3089   -2.7233 O.3     1  UNL1       -0.4730
     27 C          56.9682   92.0966   -2.7035 C.3     1  UNL1        0.2370
     28 C          56.3373   91.1214   -3.6525 C.3     1  UNL1        0.1847
     29 O          55.7059   89.8658   -3.1281 O.3     1  UNL1       -0.3784
     30 H          56.3901   89.2969   -2.7419 H       1  UNL1        0.2106
     31 C          62.9654   93.8546   -3.5154 C.2     1  UNL1        0.1732
     32 O          63.5099   92.4773   -3.7534 O.2     1  UNL1       -0.2915
     33 C          63.5999   95.8751   -3.6362 C.3     1  UNL1        0.0077
     34 C          63.6849   94.7970   -2.5968 C.3     1  UNL1        0.0554
     35 C          63.7699   93.7190   -1.5573 C.3     1  UNL1        0.0077
     36 C          64.4045   95.7395   -1.6781 C.3     1  UNL1        0.0077
@<TRIPOS>BOND
     1    33    34    1
     2    34    35    1
     3    34    36    1
     4    34    31    1
     5    31    32    2
     6    31     1    1
     7     1     2    2
     8     2     3    1
     9     2     4    1
    10     4     5    2
    11     4     6   am
    12     6     9    1
    13     9    10   ar
    14    10    11   ar
    15    11    12   ar
    16    12    15    1
    17    15    16   ar
    18    16    17   ar
    19    17    18   ar
    20    18    19   ar
    21    12    13   ar
    22    13    14   ar
    23     6     7    1
    24     7    20    1
    25    20    21   ar
    26    21    22   ar
    27    22    23   ar
    28    23    24   ar
    29    24    25   ar
    30    25    26    1
    31    26    27    1
    32    27    28    1
    33    28    29    1
    34     7     1    1
    35    25    20   ar
    36    14     9   ar
    37    19    15   ar
    38     3     8    1
    39    29    30    1
@<TRIPOS>MOLECULE
*****
 36 39 0 0 0
SMALL
GASTEIGER

@<TRIPOS>ATOM
      1 C          62.5738   83.6882   13.7442 C.2     1  UNL1        0.0732
      2 C          62.9172   83.8773   15.1921 C.2     1  UNL1        0.1887
      3 O          62.7797   82.8462   16.2728 O.2     1  UNL1       -0.5020
      4 C          63.4221   85.2786   15.3695 C.2     1  UNL1        0.2869
      5 O          63.8783   85.8947   16.6588 O.2     1  UNL1       -0.2662
      6 N          63.3909   85.9555   14.0313 N.am    1  UNL1       -0.2463
      7 C          62.8666   84.9726   13.0268 C.3     1  UNL1        0.1338
      8 H          62.4531   81.9924   16.0669 H       1  UNL1        0.2924
      9 C          63.8103   87.3675   13.7475 C.ar    1  UNL1        0.0548
     10 C          63.3493   88.0491   12.4934 C.ar    1  UNL1        0.0149
     11 C          63.7687   89.4610   12.2096 C.ar    1  UNL1        0.0018
     12 C          64.6491   90.1913   13.1799 C.ar    1  UNL1        0.0061
     13 C          65.1101   89.5097   14.4340 C.ar    1  UNL1        0.0018
     14 C          64.6907   88.0978   14.7178 C.ar    1  UNL1        0.0149
     15 C          65.0685   91.6033   12.8961 C.ar    1  UNL1        0.0295
     16 C          64.7689   92.3778   11.6469 C.ar    1  UNL1        0.0070
     17 C          65.3763   93.7418   11.7903 C.ar    1  UNL1        0.0075
     18 C          66.0513   93.8102   13.1282 C.ar    1  UNL1        0.0354
     19 S          65.8610   92.4886   13.8116 S.2     1  UNL1       -0.0864
     20 C          62.6696   85.2291   11.5621 C.ar    1  UNL1        0.0344
     21 C          61.5597   86.1262   11.1003 C.ar    1  UNL1        0.0007
     22 C          61.3628   86.3826    9.6355 C.ar    1  UNL1       -0.0001
     23 C          62.2757   85.7419    8.6326 C.ar    1  UNL1        0.0031
     24 C          63.3857   84.8447    9.0944 C.ar    1  UNL1        0.0366
     25 C          63.5826   84.5883   10.5591 C.ar    1  UNL1        0.1365
     26 O          64.6925   83.6912   11.0209 O.3     1  UNL1       -0.4730
     27 C          64.7137   82.2498   10.6060 C.3     1  UNL1        0.2370
     28 C          63.5210   81.6480    9.9241 C.3     1  UNL1        0.1847
     29 O          62.9855   80.3231   10.3802 O.3     1  UNL1       -0.3784
     30 H          63.6409   79.6306   10.2018 H       1  UNL1        0.2106
     31 C          62.0327   82.4348   13.1228 C.2     1  UNL1        0.1732
     32 O          61.2587   82.5074   11.8399 O.2     1  UNL1       -0.2915
     33 C          60.7917   80.9708   14.0263 C.3     1  UNL1        0.0077
     34 C          62.2655   81.1088   13.7842 C.3     1  UNL1        0.0554
     35 C          63.7394   81.2469   13.5421 C.3     1  UNL1        0.0077
     36 C          62.4984   79.7828   14.4456 C.3     1  UNL1        0.0077
@<TRIPOS>BOND
     1    33    34    1
     2    34    35    1
     3    34    36    1
     4    34    31    1
     5    31    32    2
     6    31     1    1
     7     1     2    2
     8     2     3    1
     9     2     4    1
    10     4     5    2
    11     4     6   am
    12     6     9    1
    13     9    10   ar
    14    10    11   ar
    15    11    12   ar
    16    12    15    1
    17    15    16   ar
    18    16    17   ar
    19    17    18   ar
    20    18    19   ar
    21    12    13   ar
    22    13    14   ar
    23     6     7    1
    24     7    20    1
    25    20    21   ar
    26    21    22   ar
    27    22    23   ar
    28    23    24   ar
    29    24    25   ar
    30    25    26    1
    31    26    27    1
    32    27    28    1
    33    28    29    1
    34     7     1    1
    35    25    20   ar
    36    14     9   ar
    37    19    15   ar
    38     3     8    1
    39    29    30    1
@<TRIPOS>MOLECULE
*****
 36 39 0 0 0
SMALL
GASTEIGER

@<TRIPOS>ATOM
      1 C          62.0044   88.6179   10.9674 C.2     1  UNL1        0.0732
      2 C          61.9638   89.8031   10.0488 C.2     1  UNL1        0.1887
      3 O          61.0845   89.9544    8.8430 O.2     1  UNL1       -0.5020
      4 C          62.9568   90.8105   10.5479 C.2     1  UNL1        0.2869
      5 O          63.2450   92.1460    9.9287 O.2     1  UNL1       -0.2662
      6 N          63.6111   90.2479   11.7748 N.am    1  UNL1       -0.2463
      7 C          63.0225   88.8928   12.0341 C.3     1  UNL1        0.1338
      8 H          60.4915   89.2686    8.6066 H       1  UNL1        0.2924
      9 C          64.6685   90.9221   12.5980 C.ar    1  UNL1        0.0548
     10 C          65.2880   90.2019   13.7588 C.ar    1  UNL1        0.0149
     11 C          66.3453   90.8761   14.5819 C.ar    1  UNL1        0.0018
     12 C          66.7831   92.2705   14.2442 C.ar    1  UNL1        0.0061
     13 C          66.1636   92.9907   13.0834 C.ar    1  UNL1        0.0018
     14 C          65.1063   92.3165   12.2603 C.ar    1  UNL1        0.0149
     15 C          67.8405   92.9447   15.0674 C.ar    1  UNL1        0.0295
     16 C          67.9925   94.4235   15.2675 C.ar    1  UNL1        0.0070
     17 C          69.1774   94.6512   16.1587 C.ar    1  UNL1        0.0075
     18 C          69.7576   93.3131   16.5093 C.ar    1  UNL1        0.0354
     19 S          68.9313   92.2585   15.8349 S.2     1  UNL1       -0.0864
     20 C          63.3878   87.9740   13.1620 C.ar    1  UNL1        0.0344
     21 C          63.8789   86.5870   12.8706 C.ar    1  UNL1        0.0007
     22 C          64.2442   85.6681   13.9985 C.ar    1  UNL1       -0.0001
     23 C          64.1183   86.1363   15.4180 C.ar    1  UNL1        0.0031
     24 C          63.6272   87.5233   15.7095 C.ar    1  UNL1        0.0366
     25 C          63.2619   88.4422   14.5816 C.ar    1  UNL1        0.1365
     26 O          62.7708   89.8291   14.8731 O.3     1  UNL1       -0.4730
     27 C          62.7960   90.3539   16.2782 C.3     1  UNL1        0.2370
     28 C          63.8872   91.2878   16.7105 C.3     1  UNL1        0.1847
     29 O          63.6135   92.7580   16.8273 O.3     1  UNL1       -0.3784
     30 H          63.4264   93.1229   15.9482 H       1  UNL1        0.2106
     31 C          61.1728   87.3759   10.8414 C.2     1  UNL1        0.1732
     32 O          60.5161   86.7867   12.0544 O.2     1  UNL1       -0.2915
     33 C          59.5886   87.2323    9.4380 C.3     1  UNL1        0.0077
     34 C          60.9980   86.7231    9.5023 C.3     1  UNL1        0.0554
     35 C          62.4074   86.2138    9.5665 C.3     1  UNL1        0.0077
     36 C          60.8232   86.0702    8.1632 C.3     1  UNL1        0.0077
@<TRIPOS>BOND
     1    33    34    1
     2    34    35    1
     3    34    36    1
     4    34    31    1
     5    31    32    2
     6    31     1    1
     7     1     2    2
     8     2     3    1
     9     2     4    1
    10     4     5    2
    11     4     6   am
    12     6     9    1
    13     9    10   ar
    14    10    11   ar
    15    11    12   ar
    16    12    15    1
    17    15    16   ar
    18    16    17   ar
    19    17    18   ar
    20    18    19   ar
    21    12    13   ar
    22    13    14   ar
    23     6     7    1
    24     7    20    1
    25    20    21   ar
    26    21    22   ar
    27    22    23   ar
    28    23    24   ar
    29    24    25   ar
    30    25    26    1
    31    26    27    1
    32    27    28    1
    33    28    29    1
    34     7     1    1
    35    25    20   ar
    36    14     9   ar
    37    19    15   ar
    38     3     8    1
    39    29    30    1
