@<TRIPOS>MOLECULE
*****
 22 25 0 0 0
SMALL
GASTEIGER

@<TRIPOS>ATOM
      1 C          63.2947   85.7224   12.9971 C.ar    1  UNL1        0.2118
      2 C          62.4942   84.7363   12.1992 C.ar    1  UNL1        0.1822
      3 O          61.6456   85.2092   11.0563 O.2     1  UNL1       -0.4471
      4 C          61.5976   86.6681   10.7113 C.ar    1  UNL1        0.1828
      5 C          62.3981   87.6543   11.5092 C.ar    1  UNL1        0.0797
      6 C          62.3501   89.1132   11.1642 C.ar    1  UNL1        0.0066
      7 C          61.5015   89.5861   10.0212 C.ar    1  UNL1        0.0034
      8 C          60.7010   88.6000    9.2233 C.ar    1  UNL1        0.0408
      9 C          59.7807   88.7691    8.0510 C.ar    1  UNL1        0.0438
     10 C          59.2599   87.4146    7.6714 C.ar    1  UNL1        0.1798
     11 O          59.8584   86.4084    8.6092 O.2     1  UNL1       -0.4473
     12 C          60.7490   87.1410    9.5683 C.ar    1  UNL1        0.1798
     13 C          63.2467   87.1813   12.6522 C.ar    1  UNL1        0.2353
     14 O          64.0472   88.1674   13.4501 O.2     1  UNL1       -0.2831
     15 C          62.5422   83.2772   12.5442 C.ar    1  UNL1        0.0377
     16 C          63.0621   82.2870   11.5446 C.ar    1  UNL1        0.0031
     17 C          63.1101   80.8280   11.8895 C.ar    1  UNL1        0.0001
     18 C          62.6382   80.3592   13.2339 C.ar    1  UNL1        0.0000
     19 C          62.1183   81.3495   14.2335 C.ar    1  UNL1        0.0001
     20 C          62.0703   82.8084   13.8886 C.ar    1  UNL1        0.0031
     21 C          63.7375   85.5542   15.5517 C.3     1  UNL1        0.2528
     22 O          64.1433   85.2494   14.1401 O.3     1  UNL1       -0.4653
@<TRIPOS>BOND
     1    21    22    1
     2    22     1    1
     3     1     2   ar
     4     2    15    1
     5    15    16   ar
     6    16    17   ar
     7    17    18   ar
     8    18    19   ar
     9    19    20   ar
    10     2     3   ar
    11     3     4   ar
    12     4     5   ar
    13     5     6   ar
    14     6     7   ar
    15     7     8   ar
    16     8     9   ar
    17     9    10   ar
    18    10    11   ar
    19    11    12   ar
    20     5    13   ar
    21    13    14    2
    22    13     1   ar
    23    20    15   ar
    24    12     4   ar
    25    12     8   ar
@<TRIPOS>MOLECULE
*****
 22 25 0 0 0
SMALL
GASTEIGER

@<TRIPOS>ATOM
      1 C          63.2073   89.6482   12.2992 C.ar    1  UNL1        0.2118
      2 C          63.9140   89.2775   13.5694 C.ar    1  UNL1        0.1822
      3 O          64.0363   87.8362   13.9663 O.2     1  UNL1       -0.4471
      4 C          63.4521   86.7655   13.0932 C.ar    1  UNL1        0.1828
      5 C          62.7455   87.1362   11.8230 C.ar    1  UNL1        0.0797
      6 C          62.1613   86.0657   10.9499 C.ar    1  UNL1        0.0066
      7 C          62.2837   84.6242   11.3468 C.ar    1  UNL1        0.0034
      8 C          62.9903   84.2536   12.6170 C.ar    1  UNL1        0.0408
      9 C          63.2649   82.9277   13.2625 C.ar    1  UNL1        0.0438
     10 C          64.0189   83.1790   14.5347 C.ar    1  UNL1        0.1798
     11 O          64.2102   84.6601   14.6754 O.2     1  UNL1       -0.4473
     12 C          63.5745   85.3242   13.4901 C.ar    1  UNL1        0.1798
     13 C          62.6231   88.5776   11.4261 C.ar    1  UNL1        0.2353
     14 O          61.9165   88.9483   10.1560 O.2     1  UNL1       -0.2831
     15 C          64.4982   90.3481   14.4426 C.ar    1  UNL1        0.0377
     16 C          65.7816   91.0183   14.0505 C.ar    1  UNL1        0.0031
     17 C          66.3659   92.0889   14.9237 C.ar    1  UNL1        0.0001
     18 C          65.6669   92.4893   16.1890 C.ar    1  UNL1        0.0000
     19 C          64.3834   91.8190   16.5811 C.ar    1  UNL1        0.0001
     20 C          63.7992   90.7485   15.7079 C.ar    1  UNL1        0.0031
     21 C          63.9762   91.6517   10.8348 C.3     1  UNL1        0.2528
     22 O          63.0850   91.0896   11.9023 O.3     1  UNL1       -0.4653
@<TRIPOS>BOND
     1    21    22    1
     2    22     1    1
     3     1     2   ar
     4     2    15    1
     5    15    16   ar
     6    16    17   ar
     7    17    18   ar
     8    18    19   ar
     9    19    20   ar
    10     2     3   ar
    11     3     4   ar
    12     4     5   ar
    13     5     6   ar
    14     6     7   ar
    15     7     8   ar
    16     8     9   ar
    17     9    10   ar
    18    10    11   ar
    19    11    12   ar
    20     5    13   ar
    21    13    14    2
    22    13     1   ar
    23    20    15   ar
    24    12     4   ar
    25    12     8   ar
@<TRIPOS>MOLECULE
*****
 22 25 0 0 0
SMALL
GASTEIGER

@<TRIPOS>ATOM
      1 C          62.7906   84.9107   11.7366 C.ar    1  UNL1        0.2118
      2 C          62.5681   86.0484   10.7847 C.ar    1  UNL1        0.1822
      3 O          62.8657   87.4546   11.2139 O.2     1  UNL1       -0.4471
      4 C          63.3857   87.7230   12.5951 C.ar    1  UNL1        0.1828
      5 C          63.6082   86.5853   13.5470 C.ar    1  UNL1        0.0797
      6 C          64.1282   86.8537   14.9280 C.ar    1  UNL1        0.0066
      7 C          64.4257   88.2599   15.3573 C.ar    1  UNL1        0.0034
      8 C          64.2033   89.3976   14.4054 C.ar    1  UNL1        0.0408
      9 C          64.4052   90.8773   14.5453 C.ar    1  UNL1        0.0438
     10 C          64.0100   91.5234   13.2505 C.ar    1  UNL1        0.1798
     11 O          63.5638   90.4430   12.3105 O.2     1  UNL1       -0.4473
     12 C          63.6833   89.1291   13.0243 C.ar    1  UNL1        0.1798
     13 C          63.3106   85.1791   13.1176 C.ar    1  UNL1        0.2353
     14 O          63.5330   84.0414   14.0695 O.2     1  UNL1       -0.2831
     15 C          62.0481   85.7801    9.4035 C.ar    1  UNL1        0.0377
     16 C          62.9295   85.1189    8.3856 C.ar    1  UNL1        0.0031
     17 C          62.4095   84.8506    7.0045 C.ar    1  UNL1        0.0001
     18 C          61.0082   85.2433    6.6411 C.ar    1  UNL1        0.0000
     19 C          60.1268   85.9045    7.6591 C.ar    1  UNL1        0.0001
     20 C          60.6468   86.1729    9.0402 C.ar    1  UNL1        0.0031
     21 C          63.6172   82.5620   10.9949 C.3     1  UNL1        0.2528
     22 O          62.4930   83.5046   11.3073 O.3     1  UNL1       -0.4653
@<TRIPOS>BOND
     1    21    22    1
     2    22     1    1
     3     1     2   ar
     4     2    15    1
     5    15    16   ar
     6    16    17   ar
     7    17    18   ar
     8    18    19   ar
     9    19    20   ar
    10     2     3   ar
    11     3     4   ar
    12     4     5   ar
    13     5     6   ar
    14     6     7   ar
    15     7     8   ar
    16     8     9   ar
    17     9    10   ar
    18    10    11   ar
    19    11    12   ar
    20     5    13   ar
    21    13    14    2
    22    13     1   ar
    23    20    15   ar
    24    12     4   ar
    25    12     8   ar
@<TRIPOS>MOLECULE
*****
 22 25 0 0 0
SMALL
GASTEIGER

@<TRIPOS>ATOM
      1 C          62.4516   88.9093   11.4668 C.ar    1  UNL1        0.2118
      2 C          61.8785   87.6434   10.9018 C.ar    1  UNL1        0.1822
      3 O          62.1810   86.3268   11.5538 O.2     1  UNL1       -0.4471
      4 C          63.0565   86.2761   12.7707 C.ar    1  UNL1        0.1828
      5 C          63.6296   87.5419   13.3356 C.ar    1  UNL1        0.0797
      6 C          64.5051   87.4912   14.5524 C.ar    1  UNL1        0.0066
      7 C          64.8076   86.1745   15.2044 C.ar    1  UNL1        0.0034
      8 C          64.2345   84.9087   14.6395 C.ar    1  UNL1        0.0408
      9 C          64.3565   83.4750   15.0634 C.ar    1  UNL1        0.0438
     10 C          63.5563   82.6397   14.1084 C.ar    1  UNL1        0.1798
     11 O          62.9398   83.5571   13.0944 O.2     1  UNL1       -0.4473
     12 C          63.3590   84.9595   13.4226 C.ar    1  UNL1        0.1798
     13 C          63.3271   88.8585   12.6836 C.ar    1  UNL1        0.2353
     14 O          63.9002   90.1244   13.2485 O.2     1  UNL1       -0.2831
     15 C          61.0029   87.6941    9.6849 C.ar    1  UNL1        0.0377
     16 C          60.5511   89.0169    9.1407 C.ar    1  UNL1        0.0031
     17 C          59.6756   89.0677    7.9238 C.ar    1  UNL1        0.0001
     18 C          59.2518   87.7957    7.2511 C.ar    1  UNL1        0.0000
     19 C          59.7036   86.4729    7.7955 C.ar    1  UNL1        0.0001
     20 C          60.5791   86.4222    9.0123 C.ar    1  UNL1        0.0031
     21 C          63.2637   91.0593   10.2553 C.3     1  UNL1        0.2528
     22 O          62.1491   90.2259   10.8147 O.3     1  UNL1       -0.4653
@<TRIPOS>BOND
     1    21    22    1
     2    22     1    1
     3     1     2   ar
     4     2    15    1
     5    15    16   ar
     6    16    17   ar
     7    17    18   ar
     8    18    19   ar
     9    19    20   ar
    10     2     3   ar
    11     3     4   ar
    12     4     5   ar
    13     5     6   ar
    14     6     7   ar
    15     7     8   ar
    16     8     9   ar
    17     9    10   ar
    18    10    11   ar
    19    11    12   ar
    20     5    13   ar
    21    13    14    2
    22    13     1   ar
    23    20    15   ar
    24    12     4   ar
    25    12     8   ar
@<TRIPOS>MOLECULE
*****
 22 25 0 0 0
SMALL
GASTEIGER

@<TRIPOS>ATOM
      1 C          62.5656   87.5877   11.7156 C.ar    1  UNL1        0.2118
      2 C          61.8486   86.6066   10.8362 C.ar    1  UNL1        0.1822
      3 O          61.9540   85.1359   11.1118 O.2     1  UNL1       -0.4471
      4 C          62.7765   84.6463   12.2667 C.ar    1  UNL1        0.1828
      5 C          63.4935   85.6274   13.1461 C.ar    1  UNL1        0.0797
      6 C          64.3159   85.1378   14.3010 C.ar    1  UNL1        0.0066
      7 C          64.4214   83.6671   14.5766 C.ar    1  UNL1        0.0034
      8 C          63.7043   82.6860   13.6972 C.ar    1  UNL1        0.0408
      9 C          63.6227   81.1885   13.7226 C.ar    1  UNL1        0.0438
     10 C          62.7497   80.7525   12.5834 C.ar    1  UNL1        0.1798
     11 O          62.2919   81.9806   11.8539 O.2     1  UNL1       -0.4473
     12 C          62.8819   83.1756   12.5423 C.ar    1  UNL1        0.1798
     13 C          63.3881   87.0981   12.8705 C.ar    1  UNL1        0.2353
     14 O          64.1051   88.0792   13.7498 O.2     1  UNL1       -0.2831
     15 C          61.0261   87.0961    9.6813 C.ar    1  UNL1        0.0377
     16 C          60.7952   88.5665    9.4949 C.ar    1  UNL1        0.0031
     17 C          59.9727   89.0561    8.3400 C.ar    1  UNL1        0.0001
     18 C          59.3811   88.0753    7.3714 C.ar    1  UNL1        0.0000
     19 C          59.6120   86.6049    7.5579 C.ar    1  UNL1        0.0001
     20 C          60.4345   86.1154    8.7127 C.ar    1  UNL1        0.0031
     21 C          61.9661   89.9881   12.5084 C.3     1  UNL1        0.2528
     22 O          62.4602   89.0584   11.4400 O.3     1  UNL1       -0.4653
@<TRIPOS>BOND
     1    21    22    1
     2    22     1    1
     3     1     2   ar
     4     2    15    1
     5    15    16   ar
     6    16    17   ar
     7    17    18   ar
     8    18    19   ar
     9    19    20   ar
    10     2     3   ar
    11     3     4   ar
    12     4     5   ar
    13     5     6   ar
    14     6     7   ar
    15     7     8   ar
    16     8     9   ar
    17     9    10   ar
    18    10    11   ar
    19    11    12   ar
    20     5    13   ar
    21    13    14    2
    22    13     1   ar
    23    20    15   ar
    24    12     4   ar
    25    12     8   ar
@<TRIPOS>MOLECULE
*****
 22 25 0 0 0
SMALL
GASTEIGER

@<TRIPOS>ATOM
      1 C          62.6816   88.0674   12.0979 C.ar    1  UNL1        0.2118
      2 C          62.4859   88.8445   10.8299 C.ar    1  UNL1        0.1822
      3 O          63.1652   90.1698   10.6501 O.2     1  UNL1       -0.4471
      4 C          64.0401   90.7179   11.7382 C.ar    1  UNL1        0.1828
      5 C          64.2358   89.9408   13.0062 C.ar    1  UNL1        0.0797
      6 C          65.1107   90.4889   14.0943 C.ar    1  UNL1        0.0066
      7 C          65.7900   91.8142   13.9145 C.ar    1  UNL1        0.0034
      8 C          65.5943   92.5913   12.6465 C.ar    1  UNL1        0.0408
      9 C          66.1302   93.9150   12.1878 C.ar    1  UNL1        0.0438
     10 C          65.5865   94.1850   10.8161 C.ar    1  UNL1        0.1798
     11 O          64.7146   93.0281   10.4271 O.2     1  UNL1       -0.4473
     12 C          64.7194   92.0431   11.5584 C.ar    1  UNL1        0.1798
     13 C          63.5565   88.6155   13.1860 C.ar    1  UNL1        0.2353
     14 O          63.7522   87.8384   14.4540 O.2     1  UNL1       -0.2831
     15 C          61.6110   88.2965    9.7417 C.ar    1  UNL1        0.0377
     16 C          60.5201   89.1445    9.1579 C.ar    1  UNL1        0.0031
     17 C          59.6451   88.5965    8.0697 C.ar    1  UNL1        0.0001
     18 C          59.8611   87.2005    7.5653 C.ar    1  UNL1        0.0000
     19 C          60.9520   86.3525    8.1491 C.ar    1  UNL1        0.0001
     20 C          61.8269   86.9004    9.2372 C.ar    1  UNL1        0.0031
     21 C          62.8099   85.4782   12.2692 C.3     1  UNL1        0.2528
     22 O          62.0023   86.7422   12.2777 O.3     1  UNL1       -0.4653
@<TRIPOS>BOND
     1    21    22    1
     2    22     1    1
     3     1     2   ar
     4     2    15    1
     5    15    16   ar
     6    16    17   ar
     7    17    18   ar
     8    18    19   ar
     9    19    20   ar
    10     2     3   ar
    11     3     4   ar
    12     4     5   ar
    13     5     6   ar
    14     6     7   ar
    15     7     8   ar
    16     8     9   ar
    17     9    10   ar
    18    10    11   ar
    19    11    12   ar
    20     5    13   ar
    21    13    14    2
    22    13     1   ar
    23    20    15   ar
    24    12     4   ar
    25    12     8   ar
@<TRIPOS>MOLECULE
*****
 22 25 0 0 0
SMALL
GASTEIGER

@<TRIPOS>ATOM
      1 C          61.8666   86.6922   10.8021 C.ar    1  UNL1        0.2118
      2 C          62.6390   86.2447   12.0076 C.ar    1  UNL1        0.1822
      3 O          63.3912   87.2477   12.8310 O.2     1  UNL1       -0.4471
      4 C          63.3711   88.6981   12.4490 C.ar    1  UNL1        0.1828
      5 C          62.5987   89.1455   11.2435 C.ar    1  UNL1        0.0797
      6 C          62.5786   90.5959   10.8615 C.ar    1  UNL1        0.0066
      7 C          63.3309   91.5989   11.6849 C.ar    1  UNL1        0.0034
      8 C          64.1033   91.1515   12.8904 C.ar    1  UNL1        0.0408
      9 C          64.9342   91.9048   13.8864 C.ar    1  UNL1        0.0438
     10 C          65.4679   90.9200   14.8840 C.ar    1  UNL1        0.1798
     11 O          64.9668   89.5580   14.5046 O.2     1  UNL1       -0.4473
     12 C          64.1234   89.7011   13.2724 C.ar    1  UNL1        0.1798
     13 C          61.8464   88.1425   10.4201 C.ar    1  UNL1        0.2353
     14 O          61.0740   88.5899    9.2146 O.2     1  UNL1       -0.2831
     15 C          62.6592   84.7943   12.3897 C.ar    1  UNL1        0.0377
     16 C          62.4159   84.3905   13.8137 C.ar    1  UNL1        0.0031
     17 C          62.4361   82.9401   14.1959 C.ar    1  UNL1        0.0001
     18 C          62.6995   81.8936   13.1541 C.ar    1  UNL1        0.0000
     19 C          62.9427   82.2975   11.7300 C.ar    1  UNL1        0.0001
     20 C          62.9225   83.7478   11.3479 C.ar    1  UNL1        0.0031
     21 C          61.3948   85.5624    8.5106 C.3     1  UNL1        0.2528
     22 O          61.1143   85.6891    9.9786 O.3     1  UNL1       -0.4653
@<TRIPOS>BOND
     1    21    22    1
     2    22     1    1
     3     1     2   ar
     4     2    15    1
     5    15    16   ar
     6    16    17   ar
     7    17    18   ar
     8    18    19   ar
     9    19    20   ar
    10     2     3   ar
    11     3     4   ar
    12     4     5   ar
    13     5     6   ar
    14     6     7   ar
    15     7     8   ar
    16     8     9   ar
    17     9    10   ar
    18    10    11   ar
    19    11    12   ar
    20     5    13   ar
    21    13    14    2
    22    13     1   ar
    23    20    15   ar
    24    12     4   ar
    25    12     8   ar
@<TRIPOS>MOLECULE
*****
 22 25 0 0 0
SMALL
GASTEIGER

@<TRIPOS>ATOM
      1 C          66.1475   92.6999   12.7503 C.ar    1  UNL1        0.2118
      2 C          65.6023   93.0989   11.4110 C.ar    1  UNL1        0.1822
      3 O          64.4832   92.3144   10.7929 O.2     1  UNL1       -0.4471
      4 C          63.9093   91.1309   11.5139 C.ar    1  UNL1        0.1828
      5 C          64.4545   90.7319   12.8532 C.ar    1  UNL1        0.0797
      6 C          63.8806   89.5484   13.5742 C.ar    1  UNL1        0.0066
      7 C          62.7615   88.7638   12.9561 C.ar    1  UNL1        0.0034
      8 C          62.2163   89.1628   11.6169 C.ar    1  UNL1        0.0408
      9 C          61.1251   88.5854   10.7649 C.ar    1  UNL1        0.0438
     10 C          61.0246   89.4120    9.5173 C.ar    1  UNL1        0.1798
     11 O          62.0537   90.5004    9.5982 O.2     1  UNL1       -0.4473
     12 C          62.7902   90.3463   10.8958 C.ar    1  UNL1        0.1798
     13 C          65.5736   91.5165   13.4713 C.ar    1  UNL1        0.2353
     14 O          66.1188   91.1175   14.8105 O.2     1  UNL1       -0.2831
     15 C          66.1761   94.2824   10.6899 C.ar    1  UNL1        0.0377
     16 C          67.1062   94.0760    9.5313 C.ar    1  UNL1        0.0031
     17 C          67.6801   95.2595    8.8101 C.ar    1  UNL1        0.0001
     18 C          67.3239   96.6493    9.2475 C.ar    1  UNL1        0.0000
     19 C          66.3938   96.8557   10.4062 C.ar    1  UNL1        0.0001
     20 C          65.8200   95.6723   11.1273 C.ar    1  UNL1        0.0031
     21 C          67.2211   93.8346   14.8262 C.3     1  UNL1        0.2528
     22 O          67.2666   93.4845   13.3684 O.3     1  UNL1       -0.4653
@<TRIPOS>BOND
     1    21    22    1
     2    22     1    1
     3     1     2   ar
     4     2    15    1
     5    15    16   ar
     6    16    17   ar
     7    17    18   ar
     8    18    19   ar
     9    19    20   ar
    10     2     3   ar
    11     3     4   ar
    12     4     5   ar
    13     5     6   ar
    14     6     7   ar
    15     7     8   ar
    16     8     9   ar
    17     9    10   ar
    18    10    11   ar
    19    11    12   ar
    20     5    13   ar
    21    13    14    2
    22    13     1   ar
    23    20    15   ar
    24    12     4   ar
    25    12     8   ar
@<TRIPOS>MOLECULE
*****
 22 25 0 0 0
SMALL
GASTEIGER

@<TRIPOS>ATOM
      1 C          63.5827   89.5351   13.2309 C.ar    1  UNL1        0.2118
      2 C          64.2919   89.1160   14.4845 C.ar    1  UNL1        0.1822
      3 O          65.3742   89.9813   15.0588 O.2     1  UNL1       -0.4471
      4 C          65.7473   91.2657   14.3797 C.ar    1  UNL1        0.1828
      5 C          65.0381   91.6848   13.1261 C.ar    1  UNL1        0.0797
      6 C          65.4111   92.9690   12.4470 C.ar    1  UNL1        0.0066
      7 C          66.4934   93.8344   13.0213 C.ar    1  UNL1        0.0034
      8 C          67.2026   93.4153   14.2749 C.ar    1  UNL1        0.0408
      9 C          68.3016   94.0573   15.0686 C.ar    1  UNL1        0.0438
     10 C          68.6078   93.1696   16.2384 C.ar    1  UNL1        0.1798
     11 O          67.6980   91.9791   16.1676 O.2     1  UNL1       -0.4473
     12 C          66.8296   92.1310   14.9540 C.ar    1  UNL1        0.1798
     13 C          63.9557   90.8194   12.5518 C.ar    1  UNL1        0.2353
     14 O          63.2465   91.2385   11.2983 O.2     1  UNL1       -0.2831
     15 C          63.9189   87.8317   15.1637 C.ar    1  UNL1        0.0377
     16 C          63.2065   87.8607   16.4834 C.ar    1  UNL1        0.0031
     17 C          62.8334   86.5764   17.1627 C.ar    1  UNL1        0.0001
     18 C          63.1728   85.2631   16.5223 C.ar    1  UNL1        0.0000
     19 C          63.8853   85.2342   15.2025 C.ar    1  UNL1        0.0001
     20 C          64.2583   86.5184   14.5233 C.ar    1  UNL1        0.0031
     21 C          62.7098   87.9814   11.3404 C.3     1  UNL1        0.2528
     22 O          62.5004   88.6698   12.6566 O.3     1  UNL1       -0.4653
@<TRIPOS>BOND
     1    21    22    1
     2    22     1    1
     3     1     2   ar
     4     2    15    1
     5    15    16   ar
     6    16    17   ar
     7    17    18   ar
     8    18    19   ar
     9    19    20   ar
    10     2     3   ar
    11     3     4   ar
    12     4     5   ar
    13     5     6   ar
    14     6     7   ar
    15     7     8   ar
    16     8     9   ar
    17     9    10   ar
    18    10    11   ar
    19    11    12   ar
    20     5    13   ar
    21    13    14    2
    22    13     1   ar
    23    20    15   ar
    24    12     4   ar
    25    12     8   ar
