@<TRIPOS>MOLECULE
*****
 37 40 0 0 0
SMALL
GASTEIGER

@<TRIPOS>ATOM
      1 N          62.8008   86.5997   14.2723 N.am    1  UNL1       -0.2533
      2 C          63.4268   87.7118   13.4842 C.2     1  UNL1        0.3092
      3 O          63.8956   87.4650   12.0808 O.2     1  UNL1       -0.2521
      4 N          63.5841   89.0708   14.0994 N.am    1  UNL1       -0.2680
      5 H          62.4931   86.7617   15.1934 H       1  UNL1        0.1578
      6 H          63.2764   89.2328   15.0204 H       1  UNL1        0.1564
      7 C          64.2101   90.1829   13.3112 C.ar    1  UNL1        0.0516
      8 C          63.6367   90.5751   11.9818 C.ar    1  UNL1        0.0147
      9 C          64.2628   91.6873   11.1936 C.ar    1  UNL1        0.0013
     10 C          65.4622   92.4072   11.7348 C.ar    1  UNL1        0.0016
     11 C          66.0356   92.0150   13.0642 C.ar    1  UNL1        0.0013
     12 C          65.4095   90.9029   13.8524 C.ar    1  UNL1        0.0147
     13 C          66.0883   93.5194   10.9466 C.ar    1  UNL1        0.0193
     14 C          66.9872   93.2038    9.7880 C.ar    1  UNL1        0.0044
     15 C          67.6132   94.3159    8.9998 C.ar    1  UNL1        0.0339
     16 C          67.3404   95.7436    9.3703 C.ar    1  UNL1        0.1254
     17 N          67.9664   96.8557    8.5821 N.pl3   1  UNL1       -0.3426
     18 N          66.4414   96.0592   10.5289 N.ar    1  UNL1       -0.2296
     19 C          65.8154   94.9470   11.3171 C.ar    1  UNL1        0.1002
     20 H          68.5564   96.6486    7.8217 H       1  UNL1        0.1437
     21 H          67.7873   97.7928    8.8253 H       1  UNL1        0.1437
     22 N          62.1028   84.9496   12.2886 N.ar    1  UNL1       -0.2162
     23 N          62.1244   83.4632   12.0883 N.ar    1  UNL1       -0.1683
     24 C          62.6785   82.8357   13.3330 C.ar    1  UNL1        0.0810
     25 C          62.9993   83.9342   14.3026 C.ar    1  UNL1        0.0509
     26 C          62.6435   85.2407   13.6572 C.ar    1  UNL1        0.1380
     27 C          60.1893   89.0165    8.3139 C.3     1  UNL1        0.0310
     28 C          60.6677   87.9998    9.3076 C.ar    1  UNL1       -0.0218
     29 C          60.2058   88.0691   10.7330 C.ar    1  UNL1       -0.0027
     30 C          60.6841   87.0523   11.7267 C.ar    1  UNL1        0.0189
     31 C          61.6244   85.9663   11.2950 C.ar    1  UNL1        0.0842
     32 C          62.0863   85.8970    9.8696 C.ar    1  UNL1        0.0189
     33 C          61.6079   86.9138    8.8759 C.ar    1  UNL1       -0.0027
     34 C          62.8769   81.3674   13.5669 C.3     1  UNL1        0.0372
     35 C          61.4827   81.2656   14.1107 C.3     1  UNL1        0.0060
     36 C          64.2712   81.4691   13.0231 C.3     1  UNL1        0.0060
     37 C          63.0754   79.8991   13.8009 C.3     1  UNL1        0.0060
@<TRIPOS>BOND
     1    27    28    1
     2    28    29   ar
     3    29    30   ar
     4    30    31   ar
     5    31    22    1
     6    22    23   ar
     7    23    24   ar
     8    24    34    1
     9    34    35    1
    10    34    36    1
    11    34    37    1
    12    24    25   ar
    13    25    26   ar
    14    26     1    1
    15     1     2   am
    16     2     3    2
    17     2     4   am
    18     4     7    1
    19     7     8   ar
    20     8     9   ar
    21     9    10   ar
    22    10    13    1
    23    13    14   ar
    24    14    15   ar
    25    15    16   ar
    26    16    17    1
    27    16    18   ar
    28    18    19   ar
    29    10    11   ar
    30    11    12   ar
    31    31    32   ar
    32    32    33   ar
    33    33    28   ar
    34    26    22   ar
    35    12     7   ar
    36    19    13   ar
    37     1     5    1
    38     4     6    1
    39    17    20    1
    40    17    21    1
@<TRIPOS>MOLECULE
*****
 37 40 0 0 0
SMALL
GASTEIGER

@<TRIPOS>ATOM
      1 N          63.7910   89.3217   15.5608 N.am    1  UNL1       -0.2533
      2 C          63.7648   88.0191   14.8175 C.2     1  UNL1        0.3092
      3 O          64.5231   87.8741   13.5313 O.2     1  UNL1       -0.2521
      4 N          62.9803   86.8615   15.3601 N.am    1  UNL1       -0.2680
      5 H          63.2933   89.4168   16.4049 H       1  UNL1        0.1578
      6 H          62.4827   86.9566   16.2042 H       1  UNL1        0.1564
      7 C          62.9542   85.5589   14.6167 C.ar    1  UNL1        0.0516
      8 C          62.7493   84.2737   15.3626 C.ar    1  UNL1        0.0147
      9 C          62.7231   82.9711   14.6192 C.ar    1  UNL1        0.0013
     10 C          62.9018   82.9537   13.1300 C.ar    1  UNL1        0.0016
     11 C          63.1067   84.2389   12.3842 C.ar    1  UNL1        0.0013
     12 C          63.1329   85.5415   13.1276 C.ar    1  UNL1        0.0147
     13 C          62.8756   81.6512   12.3866 C.ar    1  UNL1        0.0193
     14 C          63.1889   81.6182   10.9200 C.ar    1  UNL1        0.0044
     15 C          63.1628   80.3156   10.1767 C.ar    1  UNL1        0.0339
     16 C          62.8233   79.0460   10.8998 C.ar    1  UNL1        0.1254
     17 N          62.7971   77.7435   10.1564 N.pl3   1  UNL1       -0.3426
     18 N          62.5100   79.0791   12.3664 N.ar    1  UNL1       -0.2296
     19 C          62.5362   80.3816   13.1098 C.ar    1  UNL1        0.1002
     20 H          63.0028   77.7218    9.1939 H       1  UNL1        0.1437
     21 H          62.5743   76.9102   10.6311 H       1  UNL1        0.1437
     22 N          64.3764   91.1299   13.6813 N.ar    1  UNL1       -0.2162
     23 N          65.3746   92.2423   13.5540 N.ar    1  UNL1       -0.1683
     24 C          66.1906   92.2792   14.8121 C.ar    1  UNL1        0.0810
     25 C          65.6967   91.1895   15.7170 C.ar    1  UNL1        0.0509
     26 C          64.5755   90.4793   15.0181 C.ar    1  UNL1        0.1380
     27 C          60.3027   89.5589    9.5659 C.3     1  UNL1        0.0310
     28 C          61.3211   89.9517   10.5947 C.ar    1  UNL1       -0.0218
     29 C          61.0275   89.7578   12.0529 C.ar    1  UNL1       -0.0027
     30 C          62.0459   90.1506   13.0817 C.ar    1  UNL1        0.0189
     31 C          63.3580   90.7372   12.6524 C.ar    1  UNL1        0.0842
     32 C          63.6516   90.9310   11.1943 C.ar    1  UNL1        0.0189
     33 C          62.6332   90.5383   10.1655 C.ar    1  UNL1       -0.0027
     34 C          67.3048   93.2374   15.1126 C.3     1  UNL1        0.0372
     35 C          66.8032   94.1573   14.0392 C.3     1  UNL1        0.0060
     36 C          67.8065   92.3175   16.1859 C.3     1  UNL1        0.0060
     37 C          68.4191   94.1956   15.4130 C.3     1  UNL1        0.0060
@<TRIPOS>BOND
     1    27    28    1
     2    28    29   ar
     3    29    30   ar
     4    30    31   ar
     5    31    22    1
     6    22    23   ar
     7    23    24   ar
     8    24    34    1
     9    34    35    1
    10    34    36    1
    11    34    37    1
    12    24    25   ar
    13    25    26   ar
    14    26     1    1
    15     1     2   am
    16     2     3    2
    17     2     4   am
    18     4     7    1
    19     7     8   ar
    20     8     9   ar
    21     9    10   ar
    22    10    13    1
    23    13    14   ar
    24    14    15   ar
    25    15    16   ar
    26    16    17    1
    27    16    18   ar
    28    18    19   ar
    29    10    11   ar
    30    11    12   ar
    31    31    32   ar
    32    32    33   ar
    33    33    28   ar
    34    26    22   ar
    35    12     7   ar
    36    19    13   ar
    37     1     5    1
    38     4     6    1
    39    17    20    1
    40    17    21    1
@<TRIPOS>MOLECULE
*****
 37 40 0 0 0
SMALL
GASTEIGER

@<TRIPOS>ATOM
      1 N          59.6990   94.0382    0.7742 N.am    1  UNL1       -0.2533
      2 C          59.9557   93.1649    1.9663 C.2     1  UNL1        0.3092
      3 O          61.3537   92.7254    2.2870 O.2     1  UNL1       -0.2521
      4 N          58.8147   92.7311    2.8380 N.am    1  UNL1       -0.2680
      5 H          58.7815   94.3267    0.5638 H       1  UNL1        0.1578
      6 H          57.8972   93.0196    2.6277 H       1  UNL1        0.1564
      7 C          59.0715   91.8578    4.0302 C.ar    1  UNL1        0.0516
      8 C          60.4746   91.4579    4.3786 C.ar    1  UNL1        0.0147
      9 C          60.7315   90.5845    5.5708 C.ar    1  UNL1        0.0013
     10 C          59.5853   90.1112    6.4147 C.ar    1  UNL1        0.0016
     11 C          58.1822   90.5112    6.0663 C.ar    1  UNL1        0.0013
     12 C          57.9254   91.3845    4.8741 C.ar    1  UNL1        0.0147
     13 C          59.8422   89.2379    7.6069 C.ar    1  UNL1        0.0193
     14 C          60.5100   89.8070    8.8235 C.ar    1  UNL1        0.0044
     15 C          60.7668   88.9337   10.0157 C.ar    1  UNL1        0.0339
     16 C          60.3559   87.4913    9.9913 C.ar    1  UNL1        0.1254
     17 N          60.6127   86.6180   11.1835 N.pl3   1  UNL1       -0.3426
     18 N          59.6880   86.9222    8.7747 N.ar    1  UNL1       -0.2296
     19 C          59.4312   87.7955    7.5825 C.ar    1  UNL1        0.1002
     20 H          61.0510   86.9915   11.9820 H       1  UNL1        0.1437
     21 H          60.3430   85.6713   11.1675 H       1  UNL1        0.1437
     22 N          60.8755   94.4161   -1.5960 N.ar    1  UNL1       -0.2162
     23 N          62.2033   94.9475   -2.0483 N.ar    1  UNL1       -0.1683
     24 C          62.9885   95.3318   -0.8293 C.ar    1  UNL1        0.0810
     25 C          62.1459   95.0379    0.3763 C.ar    1  UNL1        0.0509
     26 C          60.8400   94.4720   -0.0975 C.ar    1  UNL1        0.1380
     27 C          56.4784   92.4180   -5.1559 C.3     1  UNL1        0.0310
     28 C          57.5777   92.9176   -4.2660 C.ar    1  UNL1       -0.0218
     29 C          57.8834   92.2071   -2.9808 C.ar    1  UNL1       -0.0027
     30 C          58.9827   92.7067   -2.0908 C.ar    1  UNL1        0.0189
     31 C          59.7762   93.9166   -2.4860 C.ar    1  UNL1        0.0842
     32 C          59.4705   94.6270   -3.7712 C.ar    1  UNL1        0.0189
     33 C          58.3712   94.1275   -4.6612 C.ar    1  UNL1       -0.0027
     34 C          64.3731   95.9086   -0.8181 C.3     1  UNL1        0.0372
     35 C          64.1641   96.3826    0.5896 C.3     1  UNL1        0.0060
     36 C          64.5820   95.4346   -2.2258 C.3     1  UNL1        0.0060
     37 C          65.7577   96.4854   -0.8068 C.3     1  UNL1        0.0060
@<TRIPOS>BOND
     1    27    28    1
     2    28    29   ar
     3    29    30   ar
     4    30    31   ar
     5    31    22    1
     6    22    23   ar
     7    23    24   ar
     8    24    34    1
     9    34    35    1
    10    34    36    1
    11    34    37    1
    12    24    25   ar
    13    25    26   ar
    14    26     1    1
    15     1     2   am
    16     2     3    2
    17     2     4   am
    18     4     7    1
    19     7     8   ar
    20     8     9   ar
    21     9    10   ar
    22    10    13    1
    23    13    14   ar
    24    14    15   ar
    25    15    16   ar
    26    16    17    1
    27    16    18   ar
    28    18    19   ar
    29    10    11   ar
    30    11    12   ar
    31    31    32   ar
    32    32    33   ar
    33    33    28   ar
    34    26    22   ar
    35    12     7   ar
    36    19    13   ar
    37     1     5    1
    38     4     6    1
    39    17    20    1
    40    17    21    1
@<TRIPOS>MOLECULE
*****
 37 40 0 0 0
SMALL
GASTEIGER

@<TRIPOS>ATOM
      1 N          64.0023   89.4544   14.0067 N.am    1  UNL1       -0.2533
      2 C          63.8460   88.0775   13.4328 C.2     1  UNL1        0.3092
      3 O          63.8948   87.8739   11.9474 O.2     1  UNL1       -0.2521
      4 N          63.6410   86.9039   14.3442 N.am    1  UNL1       -0.2680
      5 H          63.9703   89.5880   14.9815 H       1  UNL1        0.1578
      6 H          63.6090   87.0374   15.3191 H       1  UNL1        0.1564
      7 C          63.4847   85.5269   13.7703 C.ar    1  UNL1        0.0516
      8 C          62.7379   85.3306   12.4843 C.ar    1  UNL1        0.0147
      9 C          62.5816   83.9536   11.9104 C.ar    1  UNL1        0.0013
     10 C          63.1722   82.7728   12.6224 C.ar    1  UNL1        0.0016
     11 C          63.9190   82.9691   13.9083 C.ar    1  UNL1        0.0013
     12 C          64.0753   84.3461   14.4823 C.ar    1  UNL1        0.0147
     13 C          63.0159   81.3958   12.0484 C.ar    1  UNL1        0.0193
     14 C          63.2398   81.1640   10.5835 C.ar    1  UNL1        0.0044
     15 C          63.0836   79.7869   10.0096 C.ar    1  UNL1        0.0339
     16 C          62.7034   78.6418   10.9006 C.ar    1  UNL1        0.1254
     17 N          62.5471   77.2647   10.3267 N.pl3   1  UNL1       -0.3426
     18 N          62.4795   78.8736   12.3656 N.ar    1  UNL1       -0.2296
     19 C          62.6357   80.2506   12.9395 C.ar    1  UNL1        0.1002
     20 H          62.6941   77.1126    9.3652 H       1  UNL1        0.1437
     21 H          62.2976   76.5131   10.9115 H       1  UNL1        0.1437
     22 N          63.4462   90.9080   11.8334 N.ar    1  UNL1       -0.2162
     23 N          63.9780   92.1807   11.2441 N.ar    1  UNL1       -0.1683
     24 C          65.0679   92.6873   12.1416 C.ar    1  UNL1        0.0810
     25 C          65.2096   91.7277   13.2858 C.ar    1  UNL1        0.0509
     26 C          64.2074   90.6280   13.0953 C.ar    1  UNL1        0.1380
     27 C          59.0467   87.5302    9.5454 C.3     1  UNL1        0.0310
     28 C          60.1466   88.3746   10.1174 C.ar    1  UNL1       -0.0218
     29 C          61.4374   88.5321    9.3698 C.ar    1  UNL1       -0.0027
     30 C          62.5372   89.3766    9.9418 C.ar    1  UNL1        0.0189
     31 C          62.3463   90.0635   11.2614 C.ar    1  UNL1        0.0842
     32 C          61.0556   89.9061   12.0091 C.ar    1  UNL1        0.0189
     33 C          59.9557   89.0616   11.4371 C.ar    1  UNL1       -0.0027
     34 C          65.8743   93.9345   11.9318 C.3     1  UNL1        0.0372
     35 C          66.3346   93.8769   13.3583 C.3     1  UNL1        0.0060
     36 C          65.4141   93.9922   10.5054 C.3     1  UNL1        0.0060
     37 C          66.6808   95.1817   11.7221 C.3     1  UNL1        0.0060
@<TRIPOS>BOND
     1    27    28    1
     2    28    29   ar
     3    29    30   ar
     4    30    31   ar
     5    31    22    1
     6    22    23   ar
     7    23    24   ar
     8    24    34    1
     9    34    35    1
    10    34    36    1
    11    34    37    1
    12    24    25   ar
    13    25    26   ar
    14    26     1    1
    15     1     2   am
    16     2     3    2
    17     2     4   am
    18     4     7    1
    19     7     8   ar
    20     8     9   ar
    21     9    10   ar
    22    10    13    1
    23    13    14   ar
    24    14    15   ar
    25    15    16   ar
    26    16    17    1
    27    16    18   ar
    28    18    19   ar
    29    10    11   ar
    30    11    12   ar
    31    31    32   ar
    32    32    33   ar
    33    33    28   ar
    34    26    22   ar
    35    12     7   ar
    36    19    13   ar
    37     1     5    1
    38     4     6    1
    39    17    20    1
    40    17    21    1
@<TRIPOS>MOLECULE
*****
 37 40 0 0 0
SMALL
GASTEIGER

@<TRIPOS>ATOM
      1 N          61.4723   95.9997   -2.2493 N.am    1  UNL1       -0.2533
      2 C          60.0561   95.8917   -2.7316 C.2     1  UNL1        0.3092
      3 O          59.7144   94.9532   -3.8508 O.2     1  UNL1       -0.2521
      4 N          58.9815   96.7221   -2.0947 N.am    1  UNL1       -0.2680
      5 H          61.6965   96.6157   -1.5148 H       1  UNL1        0.1578
      6 H          59.2057   97.3380   -1.3602 H       1  UNL1        0.1564
      7 C          57.5653   96.6140   -2.5771 C.ar    1  UNL1        0.0516
      8 C          57.2446   96.8556   -4.0223 C.ar    1  UNL1        0.0147
      9 C          55.8284   96.7476   -4.5047 C.ar    1  UNL1        0.0013
     10 C          54.7328   96.3978   -3.5418 C.ar    1  UNL1        0.0016
     11 C          55.0534   96.1562   -2.0965 C.ar    1  UNL1        0.0013
     12 C          56.4696   96.2643   -1.6142 C.ar    1  UNL1        0.0147
     13 C          53.3166   96.2898   -4.0241 C.ar    1  UNL1        0.0193
     14 C          52.2047   96.0673   -3.0421 C.ar    1  UNL1        0.0044
     15 C          50.7885   95.9592   -3.5244 C.ar    1  UNL1        0.0339
     16 C          50.4841   96.0736   -4.9887 C.ar    1  UNL1        0.1254
     17 N          49.0679   95.9655   -5.4711 N.pl3   1  UNL1       -0.3426
     18 N          51.5960   96.2961   -5.9707 N.ar    1  UNL1       -0.2296
     19 C          53.0122   96.4042   -5.4884 C.ar    1  UNL1        0.1002
     20 H          48.3382   95.8195   -4.8265 H       1  UNL1        0.1437
     21 H          48.8681   96.0406   -6.4322 H       1  UNL1        0.1437
     22 N          63.2577   94.0104   -2.2523 N.ar    1  UNL1       -0.2162
     23 N          64.2495   93.4769   -3.2431 N.ar    1  UNL1       -0.1683
     24 C          64.1517   94.3061   -4.4893 C.ar    1  UNL1        0.0810
     25 C          63.0995   95.3521   -4.2687 C.ar    1  UNL1        0.0509
     26 C          62.5469   95.1693   -2.8862 C.ar    1  UNL1        0.1380
     27 C          62.3012   91.8823    3.2755 C.3     1  UNL1        0.0310
     28 C          62.5403   92.4143    1.8935 C.ar    1  UNL1       -0.0218
     29 C          61.4579   92.3275    0.8587 C.ar    1  UNL1       -0.0027
     30 C          61.6970   92.8595   -0.5232 C.ar    1  UNL1        0.0189
     31 C          63.0185   93.4784   -0.8704 C.ar    1  UNL1        0.0842
     32 C          64.1010   93.5652    0.1644 C.ar    1  UNL1        0.0189
     33 C          63.8618   93.0332    1.5463 C.ar    1  UNL1       -0.0027
     34 C          64.9637   94.1216   -5.7370 C.3     1  UNL1        0.0372
     35 C          65.5430   95.4943   -5.5629 C.3     1  UNL1        0.0060
     36 C          64.3844   92.7490   -5.9110 C.3     1  UNL1        0.0060
     37 C          65.7756   93.9372   -6.9846 C.3     1  UNL1        0.0060
@<TRIPOS>BOND
     1    27    28    1
     2    28    29   ar
     3    29    30   ar
     4    30    31   ar
     5    31    22    1
     6    22    23   ar
     7    23    24   ar
     8    24    34    1
     9    34    35    1
    10    34    36    1
    11    34    37    1
    12    24    25   ar
    13    25    26   ar
    14    26     1    1
    15     1     2   am
    16     2     3    2
    17     2     4   am
    18     4     7    1
    19     7     8   ar
    20     8     9   ar
    21     9    10   ar
    22    10    13    1
    23    13    14   ar
    24    14    15   ar
    25    15    16   ar
    26    16    17    1
    27    16    18   ar
    28    18    19   ar
    29    10    11   ar
    30    11    12   ar
    31    31    32   ar
    32    32    33   ar
    33    33    28   ar
    34    26    22   ar
    35    12     7   ar
    36    19    13   ar
    37     1     5    1
    38     4     6    1
    39    17    20    1
    40    17    21    1
@<TRIPOS>MOLECULE
*****
 37 40 0 0 0
SMALL
GASTEIGER

@<TRIPOS>ATOM
      1 N          59.7308   95.6040   -0.4140 N.am    1  UNL1       -0.2533
      2 C          58.5259   95.6088   -1.3073 C.2     1  UNL1        0.3092
      3 O          58.6170   95.0409   -2.6927 O.2     1  UNL1       -0.2521
      4 N          57.2297   96.1815   -0.8153 N.am    1  UNL1       -0.2680
      5 H          59.6709   95.9767    0.4952 H       1  UNL1        0.1578
      6 H          57.1698   96.5542    0.0939 H       1  UNL1        0.1564
      7 C          56.0248   96.1863   -1.7087 C.ar    1  UNL1        0.0516
      8 C          56.1055   96.8031   -3.0736 C.ar    1  UNL1        0.0147
      9 C          54.9006   96.8079   -3.9670 C.ar    1  UNL1        0.0013
     10 C          53.6149   96.1959   -3.4955 C.ar    1  UNL1        0.0016
     11 C          53.5341   95.5791   -2.1306 C.ar    1  UNL1        0.0013
     12 C          54.7390   95.5743   -1.2372 C.ar    1  UNL1        0.0147
     13 C          52.4100   96.2007   -4.3889 C.ar    1  UNL1        0.0193
     14 C          51.0390   96.0473   -3.7999 C.ar    1  UNL1        0.0044
     15 C          49.8341   96.0521   -4.6933 C.ar    1  UNL1        0.0339
     16 C          50.0001   96.2103   -6.1756 C.ar    1  UNL1        0.1254
     17 N          48.7952   96.2151   -7.0690 N.pl3   1  UNL1       -0.3426
     18 N          51.3711   96.3636   -6.7646 N.ar    1  UNL1       -0.2296
     19 C          52.5760   96.3588   -5.8712 C.ar    1  UNL1        0.1002
     20 H          47.8954   96.1144   -6.6824 H       1  UNL1        0.1437
     21 H          48.9042   96.3189   -8.0419 H       1  UNL1        0.1437
     22 N          61.8395   93.9727   -0.2211 N.ar    1  UNL1       -0.2162
     23 N          63.0528   93.7039   -1.0611 N.ar    1  UNL1       -0.1683
     24 C          62.9901   94.5963   -2.2651 C.ar    1  UNL1        0.0810
     25 C          61.7380   95.4167   -2.1693 C.ar    1  UNL1        0.0509
     26 C          61.0269   95.0313   -0.9060 C.ar    1  UNL1        0.1380
     27 C          60.4762   91.2858    4.9675 C.3     1  UNL1        0.0310
     28 C          60.8170   91.9575    3.6704 C.ar    1  UNL1       -0.0218
     29 C          59.7685   92.7327    2.9290 C.ar    1  UNL1       -0.0027
     30 C          60.1093   93.4044    1.6319 C.ar    1  UNL1        0.0189
     31 C          61.4987   93.3010    1.0761 C.ar    1  UNL1        0.0842
     32 C          62.5472   92.5258    1.8174 C.ar    1  UNL1        0.0189
     33 C          62.2064   91.8541    3.1146 C.ar    1  UNL1       -0.0027
     34 C          64.0018   94.6575   -3.3709 C.3     1  UNL1        0.0372
     35 C          63.2635   93.5785   -4.1061 C.3     1  UNL1        0.0060
     36 C          64.7401   95.7365   -2.6356 C.3     1  UNL1        0.0060
     37 C          65.0136   94.7187   -4.4766 C.3     1  UNL1        0.0060
@<TRIPOS>BOND
     1    27    28    1
     2    28    29   ar
     3    29    30   ar
     4    30    31   ar
     5    31    22    1
     6    22    23   ar
     7    23    24   ar
     8    24    34    1
     9    34    35    1
    10    34    36    1
    11    34    37    1
    12    24    25   ar
    13    25    26   ar
    14    26     1    1
    15     1     2   am
    16     2     3    2
    17     2     4   am
    18     4     7    1
    19     7     8   ar
    20     8     9   ar
    21     9    10   ar
    22    10    13    1
    23    13    14   ar
    24    14    15   ar
    25    15    16   ar
    26    16    17    1
    27    16    18   ar
    28    18    19   ar
    29    10    11   ar
    30    11    12   ar
    31    31    32   ar
    32    32    33   ar
    33    33    28   ar
    34    26    22   ar
    35    12     7   ar
    36    19    13   ar
    37     1     5    1
    38     4     6    1
    39    17    20    1
    40    17    21    1
@<TRIPOS>MOLECULE
*****
 37 40 0 0 0
SMALL
GASTEIGER

@<TRIPOS>ATOM
      1 N          60.5110   89.0183   10.8469 N.am    1  UNL1       -0.2533
      2 C          61.7769   89.6599   11.3324 C.2     1  UNL1        0.3092
      3 O          62.7736   90.1930   10.3462 O.2     1  UNL1       -0.2521
      4 N          62.0462   89.7686   12.8040 N.am    1  UNL1       -0.2680
      5 H          59.8569   88.6684   11.4941 H       1  UNL1        0.1578
      6 H          61.3920   89.4187   13.4513 H       1  UNL1        0.1564
      7 C          63.3121   90.4102   13.2894 C.ar    1  UNL1        0.0516
      8 C          63.8667   90.0507   14.6360 C.ar    1  UNL1        0.0147
      9 C          65.1326   90.6923   15.1214 C.ar    1  UNL1        0.0013
     10 C          65.8440   91.6936   14.2604 C.ar    1  UNL1        0.0016
     11 C          65.2894   92.0532   12.9139 C.ar    1  UNL1        0.0013
     12 C          64.0235   91.4115   12.4284 C.ar    1  UNL1        0.0147
     13 C          67.1099   92.3353   14.7458 C.ar    1  UNL1        0.0193
     14 C          67.0937   93.1861   15.9811 C.ar    1  UNL1        0.0044
     15 C          68.3596   93.8278   16.4665 C.ar    1  UNL1        0.0339
     16 C          69.6418   93.6186   15.7167 C.ar    1  UNL1        0.1254
     17 N          70.9077   94.2603   16.2021 N.pl3   1  UNL1       -0.3426
     18 N          69.6581   92.7678   14.4815 N.ar    1  UNL1       -0.2296
     19 C          68.3921   92.1261   13.9960 C.ar    1  UNL1        0.1002
     20 H          70.8970   94.8187   17.0129 H       1  UNL1        0.1437
     21 H          71.7493   94.1230   15.7100 H       1  UNL1        0.1437
     22 N          60.6863   87.7931    8.4777 N.ar    1  UNL1       -0.2162
     23 N          60.1999   88.0919    7.0905 N.ar    1  UNL1       -0.1683
     24 C          59.4546   89.3931    7.1309 C.ar    1  UNL1        0.0810
     25 C          59.4805   89.8985    8.5429 C.ar    1  UNL1        0.0509
     26 C          60.2417   88.9096    9.3753 C.ar    1  UNL1        0.1380
     27 C          63.8542   82.9775   10.1432 C.3     1  UNL1        0.0310
     28 C          63.0622   84.1814    9.7268 C.ar    1  UNL1       -0.0218
     29 C          62.2838   84.9569   10.7479 C.ar    1  UNL1       -0.0027
     30 C          61.4919   86.1608   10.3315 C.ar    1  UNL1        0.0189
     31 C          61.4783   86.5892    8.8940 C.ar    1  UNL1        0.0842
     32 C          62.2567   85.8137    7.8730 C.ar    1  UNL1        0.0189
     33 C          63.0487   84.6098    8.2894 C.ar    1  UNL1       -0.0027
     34 C          58.7987   90.0700    5.9640 C.3     1  UNL1        0.0372
     35 C          57.4547   89.6316    6.4652 C.3     1  UNL1        0.0060
     36 C          60.1428   90.5084    5.4628 C.3     1  UNL1        0.0060
     37 C          58.1428   90.7469    4.7971 C.3     1  UNL1        0.0060
@<TRIPOS>BOND
     1    27    28    1
     2    28    29   ar
     3    29    30   ar
     4    30    31   ar
     5    31    22    1
     6    22    23   ar
     7    23    24   ar
     8    24    34    1
     9    34    35    1
    10    34    36    1
    11    34    37    1
    12    24    25   ar
    13    25    26   ar
    14    26     1    1
    15     1     2   am
    16     2     3    2
    17     2     4   am
    18     4     7    1
    19     7     8   ar
    20     8     9   ar
    21     9    10   ar
    22    10    13    1
    23    13    14   ar
    24    14    15   ar
    25    15    16   ar
    26    16    17    1
    27    16    18   ar
    28    18    19   ar
    29    10    11   ar
    30    11    12   ar
    31    31    32   ar
    32    32    33   ar
    33    33    28   ar
    34    26    22   ar
    35    12     7   ar
    36    19    13   ar
    37     1     5    1
    38     4     6    1
    39    17    20    1
    40    17    21    1
@<TRIPOS>MOLECULE
*****
 37 40 0 0 0
SMALL
GASTEIGER

@<TRIPOS>ATOM
      1 N          61.4202   86.1104   12.1212 N.am    1  UNL1       -0.2533
      2 C          62.3227   87.2771   11.8492 C.2     1  UNL1        0.3092
      3 O          63.8073   87.0754   11.7737 O.2     1  UNL1       -0.2521
      4 N          61.7410   88.6456   11.6526 N.am    1  UNL1       -0.2680
      5 H          60.4459   86.2429   12.1707 H       1  UNL1        0.1578
      6 H          60.7667   88.7781   11.7021 H       1  UNL1        0.1564
      7 C          62.6436   89.8123   11.3806 C.ar    1  UNL1        0.0516
      8 C          62.6177   90.4840   10.0396 C.ar    1  UNL1        0.0147
      9 C          63.5204   91.6507    9.7676 C.ar    1  UNL1        0.0013
     10 C          64.4490   92.1458   10.8364 C.ar    1  UNL1        0.0016
     11 C          64.4749   91.4741   12.1774 C.ar    1  UNL1        0.0013
     12 C          63.5722   90.3074   12.4494 C.ar    1  UNL1        0.0147
     13 C          65.3516   93.3125   10.5644 C.ar    1  UNL1        0.0193
     14 C          64.8023   94.7081   10.5915 C.ar    1  UNL1        0.0044
     15 C          65.7050   95.8748   10.3195 C.ar    1  UNL1        0.0339
     16 C          67.1569   95.6459   10.0204 C.ar    1  UNL1        0.1254
     17 N          68.0596   96.8126    9.7484 N.pl3   1  UNL1       -0.3426
     18 N          67.7062   94.2503    9.9933 N.ar    1  UNL1       -0.2296
     19 C          66.8036   93.0836   10.2653 C.ar    1  UNL1        0.1002
     20 H          67.6991   97.7285    9.7661 H       1  UNL1        0.1437
     21 H          69.0126   96.6624    9.5521 H       1  UNL1        0.1437
     22 N          62.5625   84.1977   13.5983 N.ar    1  UNL1       -0.2162
     23 N          63.0323   82.7968   13.3402 N.ar    1  UNL1       -0.1683
     24 C          62.7621   82.4751   11.9003 C.ar    1  UNL1        0.0810
     25 C          62.1253   83.6772   11.2684 C.ar    1  UNL1        0.0509
     26 C          62.0020   84.7419   12.3178 C.ar    1  UNL1        0.1380
     27 C          62.8713   87.1131   18.8333 C.3     1  UNL1        0.0310
     28 C          62.7941   86.3843   17.5245 C.ar    1  UNL1       -0.0218
     29 C          64.0440   86.1199   16.7384 C.ar    1  UNL1       -0.0027
     30 C          63.9667   85.3911   15.4297 C.ar    1  UNL1        0.0189
     31 C          62.6397   84.9266   14.9070 C.ar    1  UNL1        0.0842
     32 C          61.3899   85.1910   15.6931 C.ar    1  UNL1        0.0189
     33 C          61.4671   85.9198   17.0019 C.ar    1  UNL1       -0.0027
     34 C          63.0739   81.1788   11.2129 C.3     1  UNL1        0.0372
     35 C          63.6329   81.9335   10.0433 C.3     1  UNL1        0.0060
     36 C          62.5149   80.4241   12.3826 C.3     1  UNL1        0.0060
     37 C          63.3858   79.8825   10.5256 C.3     1  UNL1        0.0060
@<TRIPOS>BOND
     1    27    28    1
     2    28    29   ar
     3    29    30   ar
     4    30    31   ar
     5    31    22    1
     6    22    23   ar
     7    23    24   ar
     8    24    34    1
     9    34    35    1
    10    34    36    1
    11    34    37    1
    12    24    25   ar
    13    25    26   ar
    14    26     1    1
    15     1     2   am
    16     2     3    2
    17     2     4   am
    18     4     7    1
    19     7     8   ar
    20     8     9   ar
    21     9    10   ar
    22    10    13    1
    23    13    14   ar
    24    14    15   ar
    25    15    16   ar
    26    16    17    1
    27    16    18   ar
    28    18    19   ar
    29    10    11   ar
    30    11    12   ar
    31    31    32   ar
    32    32    33   ar
    33    33    28   ar
    34    26    22   ar
    35    12     7   ar
    36    19    13   ar
    37     1     5    1
    38     4     6    1
    39    17    20    1
    40    17    21    1
@<TRIPOS>MOLECULE
*****
 37 40 0 0 0
SMALL
GASTEIGER

@<TRIPOS>ATOM
      1 N          60.8342   88.2536    9.9785 N.am    1  UNL1       -0.2533
      2 C          60.7851   89.2078    8.8223 C.2     1  UNL1        0.3092
      3 O          61.7014   90.3950    8.7901 O.2     1  UNL1       -0.2521
      4 N          59.8196   88.9750    7.6981 N.am    1  UNL1       -0.2680
      5 H          60.2327   87.4744    9.9995 H       1  UNL1        0.1578
      6 H          59.2182   88.1959    7.7191 H       1  UNL1        0.1564
      7 C          59.7706   89.9294    6.5419 C.ar    1  UNL1        0.0516
      8 C          58.4595   90.5143    6.1072 C.ar    1  UNL1        0.0147
      9 C          58.4104   91.4686    4.9510 C.ar    1  UNL1        0.0013
     10 C          59.6724   91.8381    4.2294 C.ar    1  UNL1        0.0016
     11 C          60.9835   91.2532    4.6640 C.ar    1  UNL1        0.0013
     12 C          61.0326   90.2989    5.8202 C.ar    1  UNL1        0.0147
     13 C          59.6234   92.7924    3.0732 C.ar    1  UNL1        0.0193
     14 C          59.1009   92.3340    1.7439 C.ar    1  UNL1        0.0044
     15 C          59.0518   93.2883    0.5877 C.ar    1  UNL1        0.0339
     16 C          59.5253   94.7010    0.7607 C.ar    1  UNL1        0.1254
     17 N          59.4762   95.6554   -0.3955 N.pl3   1  UNL1       -0.3426
     18 N          60.0478   95.1595    2.0900 N.ar    1  UNL1       -0.2296
     19 C          60.0968   94.2051    3.2462 C.ar    1  UNL1        0.1002
     20 H          59.1333   95.3545   -1.2679 H       1  UNL1        0.1437
     21 H          59.7870   96.5826   -0.2819 H       1  UNL1        0.1437
     22 N          62.6782   87.4505   11.7390 N.ar    1  UNL1       -0.2162
     23 N          63.4775   88.1198   12.8175 N.ar    1  UNL1       -0.1683
     24 C          63.0928   89.5694   12.8476 C.ar    1  UNL1        0.0810
     25 C          62.0558   89.7959   11.7878 C.ar    1  UNL1        0.0509
     26 C          61.7996   88.4864   11.1026 C.ar    1  UNL1        0.1380
     27 C          62.9481   81.6484   10.2348 C.3     1  UNL1        0.0310
     28 C          62.8806   83.0989   10.6109 C.ar    1  UNL1       -0.0218
     29 C          62.7456   83.4947   12.0514 C.ar    1  UNL1       -0.0027
     30 C          62.6782   84.9453   12.4274 C.ar    1  UNL1        0.0189
     31 C          62.7457   85.9999   11.3630 C.ar    1  UNL1        0.0842
     32 C          62.8807   85.6041    9.9225 C.ar    1  UNL1        0.0189
     33 C          62.9481   84.1536    9.5465 C.ar    1  UNL1       -0.0027
     34 C          63.6478   90.6097   13.7749 C.3     1  UNL1        0.0372
     35 C          63.2531   89.7699   14.9534 C.3     1  UNL1        0.0060
     36 C          64.0425   91.4495   12.5963 C.3     1  UNL1        0.0060
     37 C          64.2028   91.6500   14.7021 C.3     1  UNL1        0.0060
@<TRIPOS>BOND
     1    27    28    1
     2    28    29   ar
     3    29    30   ar
     4    30    31   ar
     5    31    22    1
     6    22    23   ar
     7    23    24   ar
     8    24    34    1
     9    34    35    1
    10    34    36    1
    11    34    37    1
    12    24    25   ar
    13    25    26   ar
    14    26     1    1
    15     1     2   am
    16     2     3    2
    17     2     4   am
    18     4     7    1
    19     7     8   ar
    20     8     9   ar
    21     9    10   ar
    22    10    13    1
    23    13    14   ar
    24    14    15   ar
    25    15    16   ar
    26    16    17    1
    27    16    18   ar
    28    18    19   ar
    29    10    11   ar
    30    11    12   ar
    31    31    32   ar
    32    32    33   ar
    33    33    28   ar
    34    26    22   ar
    35    12     7   ar
    36    19    13   ar
    37     1     5    1
    38     4     6    1
    39    17    20    1
    40    17    21    1
