@<TRIPOS>MOLECULE
*****
 27 30 0 0 0
SMALL
GASTEIGER

@<TRIPOS>ATOM
      1 C          62.1184   89.9100   11.5495 C.2     1  UNL1        0.2459
      2 O          61.1645   89.6717   12.6823 O.2     1  UNL1       -0.2701
      3 N          61.8628   89.2857   10.2098 N.am    1  UNL1       -0.3005
      4 H          62.4889   89.4421    9.4664 H       1  UNL1        0.1497
      5 N          68.2579   93.3826   14.9949 N.pl3   1  UNL1       -0.3375
      6 C          67.1652   92.8695   14.1045 C.ar    1  UNL1        0.1567
      7 N          66.9488   93.2447   12.6685 N.ar    1  UNL1       -0.2245
      8 C          65.7469   92.4981   12.1703 C.ar    1  UNL1        0.0892
      9 C          65.0638   92.4721   10.8352 C.ar    1  UNL1        0.0198
     10 C          63.8543   91.6094   10.6283 C.ar    1  UNL1        0.0061
     11 C          63.3279   90.7727   11.7565 C.ar    1  UNL1        0.0539
     12 C          64.0110   90.7988   13.0916 C.ar    1  UNL1        0.0126
     13 C          65.2205   91.6615   13.2986 C.ar    1  UNL1        0.0498
     14 S          66.0971   91.8910   14.4939 S.2     1  UNL1       -0.0520
     15 H          68.9157   94.0265   14.6458 H       1  UNL1        0.1442
     16 H          68.3173   93.0754   15.9283 H       1  UNL1        0.1442
     17 C          60.6533   88.4229   10.0029 C.3     1  UNL1        0.0944
     18 C          60.6655   86.9931   10.4560 C.3     1  UNL1        0.0492
     19 C          61.6800   86.0387    9.8996 C.2     1  UNL1       -0.0002
     20 C          62.0588   85.8978    8.4550 C.2     1  UNL1        0.0942
     21 N          63.1068   84.8296    8.3526 N.2     1  UNL1       -0.2482
     22 C          63.3759   84.3103    9.7340 C.2     1  UNL1        0.0631
     23 C          64.3099   83.2535   10.2448 C.3     1  UNL1        0.0717
     24 C          64.3621   82.9440   11.7115 C.2     1  UNL1       -0.0198
     25 C          63.4803   83.6913   12.6676 C.2     1  UNL1       -0.0042
     26 C          62.5463   84.7480   12.1568 C.2     1  UNL1        0.0006
     27 C          62.4941   85.0576   10.6900 C.2     1  UNL1        0.0115
@<TRIPOS>BOND
     1     5     6    1
     2     6     7   ar
     3     7     8   ar
     4     8     9   ar
     5     9    10   ar
     6    10    11   ar
     7    11     1    1
     8     1     2    2
     9     1     3   am
    10     3    17    1
    11    17    18    1
    12    18    19    1
    13    19    20    2
    14    20    21    1
    15    21    22    2
    16    22    23    1
    17    23    24    1
    18    24    25    2
    19    25    26    1
    20    26    27    2
    21    11    12   ar
    22    12    13   ar
    23    13    14   ar
    24    14     6   ar
    25    13     8   ar
    26    27    19    1
    27    27    22    1
    28     5    15    1
    29     5    16    1
    30     3     4    1
@<TRIPOS>MOLECULE
*****
 27 30 0 0 0
SMALL
GASTEIGER

@<TRIPOS>ATOM
      1 C          62.1961   90.3245   11.6857 C.2     1  UNL1        0.2459
      2 O          61.6633   89.4147   12.7526 O.2     1  UNL1       -0.2701
      3 N          61.4250   90.5217   10.4143 N.am    1  UNL1       -0.3005
      4 H          61.7747   91.1189    9.7140 H       1  UNL1        0.1497
      5 N          68.7012   93.0593   15.1248 N.pl3   1  UNL1       -0.3375
      6 C          67.5566   92.6748   14.2349 C.ar    1  UNL1        0.1567
      7 N          67.3897   93.0630   12.7956 N.ar    1  UNL1       -0.2245
      8 C          66.1079   92.4626   12.2991 C.ar    1  UNL1        0.0892
      9 C          65.4293   92.5092   10.9622 C.ar    1  UNL1        0.0198
     10 C          64.1254   91.7965   10.7578 C.ar    1  UNL1        0.0061
     11 C          63.5001   91.0372   11.8902 C.ar    1  UNL1        0.0539
     12 C          64.1786   90.9906   13.2271 C.ar    1  UNL1        0.0126
     13 C          65.4825   91.7033   13.4316 C.ar    1  UNL1        0.0498
     14 S          66.3779   91.8345   14.6279 S.2     1  UNL1       -0.0520
     15 H          69.4323   93.6171   14.7732 H       1  UNL1        0.1442
     16 H          68.7213   92.7540   16.0605 H       1  UNL1        0.1442
     17 C          60.1210   89.8090   10.2097 C.3     1  UNL1        0.0944
     18 C          60.0474   88.3194   10.3694 C.3     1  UNL1        0.0492
     19 C          59.9567   87.4389    9.1584 C.2     1  UNL1       -0.0002
     20 C          58.7738   87.3160    8.2442 C.2     1  UNL1        0.0942
     21 N          59.1189   86.3279    7.1698 N.2     1  UNL1       -0.2482
     22 C          60.5152   85.8400    7.4200 C.2     1  UNL1        0.0631
     23 C          61.3821   84.8591    6.6874 C.3     1  UNL1        0.0717
     24 C          62.7666   84.5650    7.1839 C.2     1  UNL1       -0.0198
     25 C          63.2843   85.2517    8.4129 C.2     1  UNL1       -0.0042
     26 C          62.4175   86.2324    9.1455 C.2     1  UNL1        0.0006
     27 C          61.0329   86.5266    8.6490 C.2     1  UNL1        0.0115
@<TRIPOS>BOND
     1     5     6    1
     2     6     7   ar
     3     7     8   ar
     4     8     9   ar
     5     9    10   ar
     6    10    11   ar
     7    11     1    1
     8     1     2    2
     9     1     3   am
    10     3    17    1
    11    17    18    1
    12    18    19    1
    13    19    20    2
    14    20    21    1
    15    21    22    2
    16    22    23    1
    17    23    24    1
    18    24    25    2
    19    25    26    1
    20    26    27    2
    21    11    12   ar
    22    12    13   ar
    23    13    14   ar
    24    14     6   ar
    25    13     8   ar
    26    27    19    1
    27    27    22    1
    28     5    15    1
    29     5    16    1
    30     3     4    1
@<TRIPOS>MOLECULE
*****
 27 30 0 0 0
SMALL
GASTEIGER

@<TRIPOS>ATOM
      1 C          62.3236   89.9093   11.7663 C.2     1  UNL1        0.2459
      2 O          61.4491   89.6125   12.9483 O.2     1  UNL1       -0.2701
      3 N          62.0360   89.2686   10.4409 N.am    1  UNL1       -0.3005
      4 H          62.6100   89.4634    9.6651 H       1  UNL1        0.1497
      5 N          67.7316   95.3415   10.0730 N.pl3   1  UNL1       -0.3375
      6 C          66.8258   94.2968   10.6546 C.ar    1  UNL1        0.1567
      7 N          66.9046   93.7358   12.0435 N.ar    1  UNL1       -0.2245
      8 C          65.8098   92.7219   12.1967 C.ar    1  UNL1        0.0892
      9 C          65.4031   91.8500   13.3475 C.ar    1  UNL1        0.0198
     10 C          64.2411   90.9125   13.2040 C.ar    1  UNL1        0.0061
     11 C          63.4857   90.8469   11.9098 C.ar    1  UNL1        0.0539
     12 C          63.8923   91.7188   10.7590 C.ar    1  UNL1        0.0126
     13 C          65.0544   92.6563   10.9025 C.ar    1  UNL1        0.0498
     14 S          65.6824   93.6297    9.9494 S.2     1  UNL1       -0.0520
     15 H          68.4582   95.7217   10.6178 H       1  UNL1        0.1442
     16 H          67.5994   95.6471    9.1465 H       1  UNL1        0.1442
     17 C          60.8739   88.3310   10.2975 C.3     1  UNL1        0.0944
     18 C          60.9727   86.9286   10.8205 C.3     1  UNL1        0.0492
     19 C          61.9096   85.9515   10.1744 C.2     1  UNL1       -0.0002
     20 C          62.2677   85.9040    8.7185 C.2     1  UNL1        0.0942
     21 N          63.2324   84.7735    8.5151 N.2     1  UNL1       -0.2482
     22 C          63.4706   84.1224    9.8453 C.2     1  UNL1        0.0631
     23 C          64.3263   82.9605   10.2553 C.3     1  UNL1        0.0717
     24 C          64.3645   82.5268   11.6906 C.2     1  UNL1       -0.0198
     25 C          63.5469   83.2549   12.7162 C.2     1  UNL1       -0.0042
     26 C          62.6913   84.4167   12.3062 C.2     1  UNL1        0.0006
     27 C          62.6531   84.8505   10.8708 C.2     1  UNL1        0.0115
@<TRIPOS>BOND
     1     5     6    1
     2     6     7   ar
     3     7     8   ar
     4     8     9   ar
     5     9    10   ar
     6    10    11   ar
     7    11     1    1
     8     1     2    2
     9     1     3   am
    10     3    17    1
    11    17    18    1
    12    18    19    1
    13    19    20    2
    14    20    21    1
    15    21    22    2
    16    22    23    1
    17    23    24    1
    18    24    25    2
    19    25    26    1
    20    26    27    2
    21    11    12   ar
    22    12    13   ar
    23    13    14   ar
    24    14     6   ar
    25    13     8   ar
    26    27    19    1
    27    27    22    1
    28     5    15    1
    29     5    16    1
    30     3     4    1
@<TRIPOS>MOLECULE
*****
 27 30 0 0 0
SMALL
GASTEIGER

@<TRIPOS>ATOM
      1 C          63.0076   86.3172   16.5324 C.2     1  UNL1        0.2459
      2 O          62.2928   86.0469   17.8232 O.2     1  UNL1       -0.2701
      3 N          63.3886   87.7208   16.1658 N.am    1  UNL1       -0.3005
      4 H          63.8577   87.8982   15.3186 H       1  UNL1        0.1497
      5 N          62.4668   79.5558   12.5809 N.pl3   1  UNL1       -0.3375
      6 C          62.8216   80.8758   13.1986 C.ar    1  UNL1        0.1567
      7 N          64.0675   81.6675   12.9321 N.ar    1  UNL1       -0.2245
      8 C          64.0088   82.9169   13.7601 C.ar    1  UNL1        0.0892
      9 C          64.9572   84.0698   13.9060 C.ar    1  UNL1        0.0198
     10 C          64.6235   85.2032   14.8301 C.ar    1  UNL1        0.0061
     11 C          63.3413   85.1837   15.6083 C.ar    1  UNL1        0.0539
     12 C          62.3929   84.0308   15.4625 C.ar    1  UNL1        0.0126
     13 C          62.7267   82.8974   14.5384 C.ar    1  UNL1        0.0498
     14 S          61.9930   81.6360   14.1913 S.2     1  UNL1       -0.0520
     15 H          63.0791   79.1337   11.9358 H       1  UNL1        0.1442
     16 H          61.6215   79.1115   12.8205 H       1  UNL1        0.1442
     17 C          63.0548   88.8543   17.0899 C.3     1  UNL1        0.0944
     18 C          63.4296   90.2588   16.7200 C.3     1  UNL1        0.0492
     19 C          63.8322   90.5813   15.3116 C.2     1  UNL1       -0.0002
     20 C          63.1943   90.0405   14.0664 C.2     1  UNL1        0.0942
     21 N          63.9112   90.6263   12.8862 N.2     1  UNL1       -0.2482
     22 C          64.9924   91.5292   13.4020 C.2     1  UNL1        0.0631
     23 C          66.0150   92.3731   12.7004 C.3     1  UNL1        0.0717
     24 C          66.9887   93.1891   13.4978 C.2     1  UNL1       -0.0198
     25 C          66.9399   93.1614   14.9968 C.2     1  UNL1       -0.0042
     26 C          65.9173   92.3175   15.6983 C.2     1  UNL1        0.0006
     27 C          64.9435   91.5014   14.9010 C.2     1  UNL1        0.0115
@<TRIPOS>BOND
     1     5     6    1
     2     6     7   ar
     3     7     8   ar
     4     8     9   ar
     5     9    10   ar
     6    10    11   ar
     7    11     1    1
     8     1     2    2
     9     1     3   am
    10     3    17    1
    11    17    18    1
    12    18    19    1
    13    19    20    2
    14    20    21    1
    15    21    22    2
    16    22    23    1
    17    23    24    1
    18    24    25    2
    19    25    26    1
    20    26    27    2
    21    11    12   ar
    22    12    13   ar
    23    13    14   ar
    24    14     6   ar
    25    13     8   ar
    26    27    19    1
    27    27    22    1
    28     5    15    1
    29     5    16    1
    30     3     4    1
@<TRIPOS>MOLECULE
*****
 27 30 0 0 0
SMALL
GASTEIGER

@<TRIPOS>ATOM
      1 C          63.5155   89.6690   12.7708 C.2     1  UNL1        0.2459
      2 O          63.8056   88.6688   13.8504 O.2     1  UNL1       -0.2701
      3 N          64.2364   90.9843   12.7536 N.am    1  UNL1       -0.3005
      4 H          64.0460   91.6407   12.0450 H       1  UNL1        0.1497
      5 N          59.4342   85.7345    7.3407 N.pl3   1  UNL1       -0.3375
      6 C          60.0390   86.7050    8.3115 C.ar    1  UNL1        0.1567
      7 N          59.6062   88.1254    8.5235 N.ar    1  UNL1       -0.2245
      8 C          60.4825   88.7237    9.5838 C.ar    1  UNL1        0.0892
      9 C          60.5190   90.0895   10.2029 C.ar    1  UNL1        0.0198
     10 C          61.5300   90.4046   11.2652 C.ar    1  UNL1        0.0061
     11 C          62.5045   89.3539   11.7084 C.ar    1  UNL1        0.0539
     12 C          62.4679   87.9881   11.0893 C.ar    1  UNL1        0.0126
     13 C          61.4569   87.6731   10.0270 C.ar    1  UNL1        0.0498
     14 S          61.1828   86.4254    9.2407 S.2     1  UNL1       -0.0520
     15 H          58.6818   86.0133    6.7702 H       1  UNL1        0.1442
     16 H          59.7896   84.8188    7.2741 H       1  UNL1        0.1442
     17 C          65.2475   91.2994   13.8159 C.3     1  UNL1        0.0944
     18 C          66.5667   91.9058   13.4395 C.3     1  UNL1        0.0492
     19 C          66.6183   93.0408   12.4602 C.2     1  UNL1       -0.0002
     20 C          66.0497   94.4129   12.6700 C.2     1  UNL1        0.0942
     21 N          66.3275   95.2231   11.4386 N.2     1  UNL1       -0.2482
     22 C          67.0677   94.3516   10.4677 C.2     1  UNL1        0.0631
     23 C          67.6014   94.6120    9.0901 C.3     1  UNL1        0.0717
     24 C          68.3147   93.5237    8.3440 C.2     1  UNL1       -0.0198
     25 C          68.4944   92.1749    8.9754 C.2     1  UNL1       -0.0042
     26 C          67.9608   91.9146   10.3529 C.2     1  UNL1        0.0006
     27 C          67.2474   93.0029   11.0991 C.2     1  UNL1        0.0115
@<TRIPOS>BOND
     1     5     6    1
     2     6     7   ar
     3     7     8   ar
     4     8     9   ar
     5     9    10   ar
     6    10    11   ar
     7    11     1    1
     8     1     2    2
     9     1     3   am
    10     3    17    1
    11    17    18    1
    12    18    19    1
    13    19    20    2
    14    20    21    1
    15    21    22    2
    16    22    23    1
    17    23    24    1
    18    24    25    2
    19    25    26    1
    20    26    27    2
    21    11    12   ar
    22    12    13   ar
    23    13    14   ar
    24    14     6   ar
    25    13     8   ar
    26    27    19    1
    27    27    22    1
    28     5    15    1
    29     5    16    1
    30     3     4    1
@<TRIPOS>MOLECULE
*****
 27 30 0 0 0
SMALL
GASTEIGER

@<TRIPOS>ATOM
      1 C          61.9059   87.0430    9.7797 C.2     1  UNL1        0.2459
      2 O          60.8651   87.1065    8.7013 O.2     1  UNL1       -0.2701
      3 N          62.4061   88.3066   10.4145 N.am    1  UNL1       -0.3005
      4 H          63.0892   88.2649   11.1223 H       1  UNL1        0.1497
      5 N          63.6118   80.8598   14.3053 N.pl3   1  UNL1       -0.3375
      6 C          63.4283   81.8963   13.2366 C.ar    1  UNL1        0.1567
      7 N          63.9378   81.8105   11.8284 N.ar    1  UNL1       -0.2245
      8 C          63.5274   83.0617   11.1099 C.ar    1  UNL1        0.0892
      9 C          63.7500   83.5297    9.7023 C.ar    1  UNL1        0.0198
     10 C          63.2095   84.8568    9.2589 C.ar    1  UNL1        0.0061
     11 C          62.4464   85.7159   10.2231 C.ar    1  UNL1        0.0539
     12 C          62.2238   85.2478   11.6307 C.ar    1  UNL1        0.0126
     13 C          62.7643   83.9207   12.0741 C.ar    1  UNL1        0.0498
     14 S          62.7030   83.2005   13.3884 S.2     1  UNL1       -0.0520
     15 H          64.1058   80.0314   14.1079 H       1  UNL1        0.1442
     16 H          63.2383   81.0080   15.2040 H       1  UNL1        0.1442
     17 C          61.8656   89.6338    9.9711 C.3     1  UNL1        0.0944
     18 C          62.1020   90.8569   10.8065 C.3     1  UNL1        0.0492
     19 C          62.9732   90.7760   12.0249 C.2     1  UNL1       -0.0002
     20 C          62.6449   90.0523   13.2971 C.2     1  UNL1        0.0942
     21 N          63.7944   90.2336   14.2435 N.2     1  UNL1       -0.2482
     22 C          64.8332   91.0695   13.5561 C.2     1  UNL1        0.0631
     23 C          66.1757   91.5687   14.0017 C.3     1  UNL1        0.0717
     24 C          67.0107   92.4030   13.0762 C.2     1  UNL1       -0.0198
     25 C          66.5031   92.7382   11.7050 C.2     1  UNL1       -0.0042
     26 C          65.1607   92.2390   11.2594 C.2     1  UNL1        0.0006
     27 C          64.3256   91.4047   12.1850 C.2     1  UNL1        0.0115
@<TRIPOS>BOND
     1     5     6    1
     2     6     7   ar
     3     7     8   ar
     4     8     9   ar
     5     9    10   ar
     6    10    11   ar
     7    11     1    1
     8     1     2    2
     9     1     3   am
    10     3    17    1
    11    17    18    1
    12    18    19    1
    13    19    20    2
    14    20    21    1
    15    21    22    2
    16    22    23    1
    17    23    24    1
    18    24    25    2
    19    25    26    1
    20    26    27    2
    21    11    12   ar
    22    12    13   ar
    23    13    14   ar
    24    14     6   ar
    25    13     8   ar
    26    27    19    1
    27    27    22    1
    28     5    15    1
    29     5    16    1
    30     3     4    1
@<TRIPOS>MOLECULE
*****
 27 30 0 0 0
SMALL
GASTEIGER

@<TRIPOS>ATOM
      1 C          63.8959   87.1366   13.8031 C.2     1  UNL1        0.2459
      2 O          64.5941   87.9616   14.8432 O.2     1  UNL1       -0.2701
      3 N          63.2634   87.8030   12.6174 N.am    1  UNL1       -0.3005
      4 H          62.8051   87.2615   11.9348 H       1  UNL1        0.1497
      5 N          62.5771   79.5706   12.1784 N.pl3   1  UNL1       -0.3375
      6 C          62.9258   80.9166   12.7411 C.ar    1  UNL1        0.1567
      7 N          63.5130   81.1807   14.0959 N.ar    1  UNL1       -0.2245
      8 C          63.6986   82.6622   14.2399 C.ar    1  UNL1        0.0892
      9 C          64.2369   83.5021   15.3601 C.ar    1  UNL1        0.0198
     10 C          64.3026   84.9935   15.2145 C.ar    1  UNL1        0.0061
     11 C          63.8301   85.6451   13.9487 C.ar    1  UNL1        0.0539
     12 C          63.2919   84.8052   12.8285 C.ar    1  UNL1        0.0126
     13 C          63.2262   83.3137   12.9741 C.ar    1  UNL1        0.0498
     14 S          62.7485   82.2349   12.0478 S.2     1  UNL1       -0.0520
     15 H          62.7312   78.7585   12.7133 H       1  UNL1        0.1442
     16 H          62.1941   79.4992   11.2743 H       1  UNL1        0.1442
     17 C          63.3292   89.2946   12.4719 C.3     1  UNL1        0.0944
     18 C          63.0447   89.9318   11.1441 C.3     1  UNL1        0.0492
     19 C          61.8221   89.5375   10.3696 C.2     1  UNL1       -0.0002
     20 C          60.5729   90.3540   10.2182 C.2     1  UNL1        0.0942
     21 N          59.6128   89.5787    9.3656 N.2     1  UNL1       -0.2482
     22 C          60.2687   88.2829    8.9901 C.2     1  UNL1        0.0631
     23 C          59.7989   87.1228    8.1632 C.3     1  UNL1        0.0717
     24 C          60.6945   85.9374    7.9569 C.2     1  UNL1       -0.0198
     25 C          62.0600   85.9120    8.5774 C.2     1  UNL1       -0.0042
     26 C          62.5297   87.0720    9.4043 C.2     1  UNL1        0.0006
     27 C          61.6340   88.2575    9.6106 C.2     1  UNL1        0.0115
@<TRIPOS>BOND
     1     5     6    1
     2     6     7   ar
     3     7     8   ar
     4     8     9   ar
     5     9    10   ar
     6    10    11   ar
     7    11     1    1
     8     1     2    2
     9     1     3   am
    10     3    17    1
    11    17    18    1
    12    18    19    1
    13    19    20    2
    14    20    21    1
    15    21    22    2
    16    22    23    1
    17    23    24    1
    18    24    25    2
    19    25    26    1
    20    26    27    2
    21    11    12   ar
    22    12    13   ar
    23    13    14   ar
    24    14     6   ar
    25    13     8   ar
    26    27    19    1
    27    27    22    1
    28     5    15    1
    29     5    16    1
    30     3     4    1
@<TRIPOS>MOLECULE
*****
 27 30 0 0 0
SMALL
GASTEIGER

@<TRIPOS>ATOM
      1 C          63.0693   87.4199   12.4707 C.2     1  UNL1        0.2459
      2 O          63.5337   86.1879   13.1894 O.2     1  UNL1       -0.2701
      3 N          63.4481   88.7766   12.9863 N.am    1  UNL1       -0.3005
      4 H          63.1433   89.5852   12.5146 H       1  UNL1        0.1497
      5 N          58.6130   89.3395    6.2999 N.pl3   1  UNL1       -0.3375
      6 C          59.4265   88.7025    7.3872 C.ar    1  UNL1        0.1567
      7 N          59.6803   87.2334    7.5529 N.ar    1  UNL1       -0.2245
      8 C          60.5397   87.0456    8.7679 C.ar    1  UNL1        0.0892
      9 C          61.1056   85.8174    9.4169 C.ar    1  UNL1        0.0198
     10 C          61.9488   85.9421   10.6512 C.ar    1  UNL1        0.0061
     11 C          62.2261   87.2951   11.2364 C.ar    1  UNL1        0.0539
     12 C          61.6602   88.5233   10.5874 C.ar    1  UNL1        0.0126
     13 C          60.8171   88.3986    9.3531 C.ar    1  UNL1        0.0498
     14 S          60.1290   89.4225    8.4998 S.2     1  UNL1       -0.0520
     15 H          58.1884   88.7796    5.6104 H       1  UNL1        0.1442
     16 H          58.5036   90.3177    6.2757 H       1  UNL1        0.1442
     17 C          64.2913   88.9013   14.2206 C.3     1  UNL1        0.0944
     18 C          64.2881   90.1798   15.0051 C.3     1  UNL1        0.0492
     19 C          65.1278   91.3381   14.5548 C.2     1  UNL1       -0.0002
     20 C          66.0831   92.1190   15.4078 C.2     1  UNL1        0.0942
     21 N          66.7055   93.1825   14.5526 N.2     1  UNL1       -0.2482
     22 C          66.1347   93.0590   13.1708 C.2     1  UNL1        0.0631
     23 C          66.3769   93.8373   11.9115 C.3     1  UNL1        0.0717
     24 C          65.6441   93.4757   10.6537 C.2     1  UNL1       -0.0198
     25 C          64.6691   92.3357   10.6551 C.2     1  UNL1       -0.0042
     26 C          64.4269   91.5575   11.9143 C.2     1  UNL1        0.0006
     27 C          65.1597   91.9191   13.1722 C.2     1  UNL1        0.0115
@<TRIPOS>BOND
     1     5     6    1
     2     6     7   ar
     3     7     8   ar
     4     8     9   ar
     5     9    10   ar
     6    10    11   ar
     7    11     1    1
     8     1     2    2
     9     1     3   am
    10     3    17    1
    11    17    18    1
    12    18    19    1
    13    19    20    2
    14    20    21    1
    15    21    22    2
    16    22    23    1
    17    23    24    1
    18    24    25    2
    19    25    26    1
    20    26    27    2
    21    11    12   ar
    22    12    13   ar
    23    13    14   ar
    24    14     6   ar
    25    13     8   ar
    26    27    19    1
    27    27    22    1
    28     5    15    1
    29     5    16    1
    30     3     4    1
@<TRIPOS>MOLECULE
*****
 27 30 0 0 0
SMALL
GASTEIGER

@<TRIPOS>ATOM
      1 C          62.0250   90.3500   11.7631 C.2     1  UNL1        0.2459
      2 O          61.5244   89.5695   12.9421 O.2     1  UNL1       -0.2701
      3 N          61.2383   90.3672   10.4861 N.am    1  UNL1       -0.3005
      4 H          61.5669   90.8795    9.7123 H       1  UNL1        0.1497
      5 N          68.1463   94.8622    9.8151 N.pl3   1  UNL1       -0.3375
      6 C          67.1047   93.9854   10.4448 C.ar    1  UNL1        0.1567
      7 N          67.1163   93.4766   11.8558 N.ar    1  UNL1       -0.2245
      8 C          65.8875   92.6402   12.0571 C.ar    1  UNL1        0.0892
      9 C          65.3710   91.8850   13.2458 C.ar    1  UNL1        0.0198
     10 C          64.0836   91.1216   13.1477 C.ar    1  UNL1        0.0061
     11 C          63.3126   91.1135   11.8611 C.ar    1  UNL1        0.0539
     12 C          63.8290   91.8687   10.6724 C.ar    1  UNL1        0.0126
     13 C          65.1165   92.6321   10.7705 C.ar    1  UNL1        0.0498
     14 S          65.8688   93.4634    9.7740 S.2     1  UNL1       -0.0520
     15 H          68.9263   95.1545   10.3398 H       1  UNL1        0.1442
     16 H          68.0498   95.1453    8.8772 H       1  UNL1        0.1442
     17 C          59.9507   89.6037   10.3881 C.3     1  UNL1        0.0944
     18 C          59.9587   88.1061   10.4709 C.3     1  UNL1        0.0492
     19 C          59.9123   87.2854    9.2162 C.2     1  UNL1       -0.0002
     20 C          58.7559   87.1933    8.2651 C.2     1  UNL1        0.0942
     21 N          59.1430   86.2638    7.1534 N.2     1  UNL1       -0.2482
     22 C          60.5386   85.7814    7.4173 C.2     1  UNL1        0.0631
     23 C          61.4380   84.8486    6.6614 C.3     1  UNL1        0.0717
     24 C          62.8127   84.5474    7.1804 C.2     1  UNL1       -0.0198
     25 C          63.2881   85.1789    8.4553 C.2     1  UNL1       -0.0042
     26 C          62.3888   86.1115    9.2111 C.2     1  UNL1        0.0006
     27 C          61.0140   86.4128    8.6921 C.2     1  UNL1        0.0115
@<TRIPOS>BOND
     1     5     6    1
     2     6     7   ar
     3     7     8   ar
     4     8     9   ar
     5     9    10   ar
     6    10    11   ar
     7    11     1    1
     8     1     2    2
     9     1     3   am
    10     3    17    1
    11    17    18    1
    12    18    19    1
    13    19    20    2
    14    20    21    1
    15    21    22    2
    16    22    23    1
    17    23    24    1
    18    24    25    2
    19    25    26    1
    20    26    27    2
    21    11    12   ar
    22    12    13   ar
    23    13    14   ar
    24    14     6   ar
    25    13     8   ar
    26    27    19    1
    27    27    22    1
    28     5    15    1
    29     5    16    1
    30     3     4    1
