@<TRIPOS>MOLECULE
*****
 33 37 0 0 0
SMALL
GASTEIGER

@<TRIPOS>ATOM
      1 C          62.8803   90.6061   11.3449 C.3     1  UNL1        0.1095
      2 C          63.0466   91.5026   10.1539 C.3     1  UNL1        0.1597
      3 O          64.1998   92.4598   10.0908 O.3     1  UNL1       -0.3533
      4 C          65.1867   92.5204   11.2188 C.3     1  UNL1        0.1315
      5 C          66.4132   93.3563   11.4355 C.3     1  UNL1        0.0311
      6 C          67.0048   92.9764   12.7605 C.3     1  UNL1        0.0041
      7 C          66.1440   91.9057   13.3627 C.3     1  UNL1        0.0203
      8 C          65.0203   91.6238   12.4098 C.3     1  UNL1        0.1066
      9 N          63.8671   90.6667   12.4729 N.3     1  UNL1       -0.1534
     10 C          61.7270   89.6489   11.4079 C.3     1  UNL1        0.0261
     11 C          60.4022   89.0617   11.7949 C.3     1  UNL1        0.0020
     12 C          60.8319   90.3819   12.3626 C.3     1  UNL1        0.0020
     13 C          62.2217   88.5834   10.4751 C.3     1  UNL1        0.0867
     14 O          60.0637   88.7961    9.0441 O.2     1  UNL1       -0.2749
     15 C          61.3292   88.0669    9.3858 C.2     1  UNL1        0.2257
     16 N          61.7022   86.8211    8.6381 N.am    1  UNL1       -0.2795
     17 C          62.9294   85.9896    8.8670 C.3     1  UNL1        0.0935
     18 C          62.8992   84.8427    7.9006 C.3     1  UNL1        0.0257
     19 C          61.6533   84.9656    7.0745 C.3     1  UNL1        0.0509
     20 C          60.9135   86.1883    7.5302 C.3     1  UNL1        0.0959
     21 C          61.2227   84.0300    5.9839 C.3     1  UNL1        0.1388
     22 O          61.8606   84.1134    4.6289 O.3     1  UNL1       -0.3819
     23 H          61.6321   84.9606    4.2155 H       1  UNL1        0.2104
     24 S          63.7008   89.7701   13.6639 S.O2    1  UNL1        0.0634
     25 O          63.3769   90.9617   14.5156 O.2     1  UNL1       -0.1528
     26 O          63.9474   88.5344   13.1795 O.2     1  UNL1       -0.1528
     27 C          63.5344   88.8736   14.8550 C.ar    1  UNL1        0.1223
     28 C          62.9569   89.4175   16.1281 C.ar    1  UNL1        0.0208
     29 C          62.7905   88.5210   17.3192 C.ar    1  UNL1        0.0128
     30 C          63.2017   87.0809   17.2372 C.ar    1  UNL1        0.0578
     31 CL         63.0353   86.1845   18.4283 Cl      1  UNL1       -0.0822
     32 C          63.7792   86.5370   15.9641 C.ar    1  UNL1        0.0128
     33 C          63.9456   87.4335   14.7729 C.ar    1  UNL1        0.0208
@<TRIPOS>BOND
     1    14    15    2
     2    15    13    1
     3    13    10    1
     4     1    10    1
     5     1     2    1
     6     2     3    1
     7     3     4    1
     8     4     5    1
     9     5     6    1
    10     6     7    1
    11     8     7    1
    12     8     9    1
    13     9    24    1
    14    24    25    2
    15    24    26    2
    16    24    27    1
    17    27    28   ar
    18    28    29   ar
    19    29    30   ar
    20    30    31    1
    21    30    32   ar
    22    32    33   ar
    23    10    11    1
    24    11    12    1
    25    15    16   am
    26    16    17    1
    27    17    18    1
    28    18    19    1
    29    19    21    1
    30    21    22    1
    31    19    20    1
    32    12    10    1
    33    20    16    1
    34     9     1    1
    35    33    27   ar
    36     8     4    1
    37    22    23    1
@<TRIPOS>MOLECULE
*****
 33 37 0 0 0
SMALL
GASTEIGER

@<TRIPOS>ATOM
      1 C          63.0751   90.5629   11.3074 C.3     1  UNL1        0.1095
      2 C          63.2546   91.4595   10.1184 C.3     1  UNL1        0.1597
      3 O          64.2771   92.5565   10.1538 O.3     1  UNL1       -0.3533
      4 C          65.1199   92.7569   11.3783 C.3     1  UNL1        0.1315
      5 C          66.1996   93.7464   11.7026 C.3     1  UNL1        0.0311
      6 C          66.6873   93.4613   13.0922 C.3     1  UNL1        0.0041
      7 C          65.9091   92.2957   13.6266 C.3     1  UNL1        0.0203
      8 C          64.9404   91.8603   12.5674 C.3     1  UNL1        0.1066
      9 N          63.9179   90.7633   12.5319 N.3     1  UNL1       -0.1534
     10 C          62.0526   89.4659   11.2720 C.3     1  UNL1        0.0261
     11 C          60.7557   88.7408   11.4767 C.3     1  UNL1        0.0020
     12 C          60.9067   90.1558   11.9509 C.3     1  UNL1        0.0020
     13 C          62.8435   88.3950   10.5809 C.3     1  UNL1        0.0867
     14 O          61.2462   86.9436    9.1344 O.2     1  UNL1       -0.2749
     15 C          62.2081   87.0703   10.2785 C.2     1  UNL1        0.2257
     16 N          62.5345   85.8723   11.1201 N.am    1  UNL1       -0.2795
     17 C          63.4723   85.8461   12.2904 C.3     1  UNL1        0.0935
     18 C          63.4978   84.4478   12.8328 C.3     1  UNL1        0.0257
     19 C          62.5756   83.6099   11.9977 C.3     1  UNL1        0.0509
     20 C          61.9802   84.4903   10.9392 C.3     1  UNL1        0.0959
     21 C          62.2975   82.1482   12.1877 C.3     1  UNL1        0.1388
     22 O          61.8179   81.6424   13.5159 O.3     1  UNL1       -0.3819
     23 H          62.5158   81.7624   14.1788 H       1  UNL1        0.2104
     24 S          63.7384   89.8667   13.7210 S.O2    1  UNL1        0.0634
     25 O          63.0746   90.9871   14.4655 O.2     1  UNL1       -0.1528
     26 O          64.2788   88.6932   13.3298 O.2     1  UNL1       -0.1528
     27 C          63.5587   88.9702   14.9101 C.ar    1  UNL1        0.1223
     28 C          63.9674   87.5291   14.8313 C.ar    1  UNL1        0.0208
     29 C          63.7878   86.6325   16.0204 C.ar    1  UNL1        0.0128
     30 C          63.1996   87.1771   17.2882 C.ar    1  UNL1        0.0578
     31 CL         63.0200   86.2805   18.4773 Cl      1  UNL1       -0.0822
     32 C          62.7910   88.6182   17.3670 C.ar    1  UNL1        0.0128
     33 C          62.9705   89.5148   16.1779 C.ar    1  UNL1        0.0208
@<TRIPOS>BOND
     1    14    15    2
     2    15    13    1
     3    13    10    1
     4     1    10    1
     5     1     2    1
     6     2     3    1
     7     3     4    1
     8     4     5    1
     9     5     6    1
    10     6     7    1
    11     8     7    1
    12     8     9    1
    13     9    24    1
    14    24    25    2
    15    24    26    2
    16    24    27    1
    17    27    28   ar
    18    28    29   ar
    19    29    30   ar
    20    30    31    1
    21    30    32   ar
    22    32    33   ar
    23    10    11    1
    24    11    12    1
    25    15    16   am
    26    16    17    1
    27    17    18    1
    28    18    19    1
    29    19    21    1
    30    21    22    1
    31    19    20    1
    32    12    10    1
    33    20    16    1
    34     9     1    1
    35    33    27   ar
    36     8     4    1
    37    22    23    1
@<TRIPOS>MOLECULE
*****
 33 37 0 0 0
SMALL
GASTEIGER

@<TRIPOS>ATOM
      1 C          63.4398   88.2771   13.1718 C.3     1  UNL1        0.1095
      2 C          64.2696   87.8999   14.3629 C.3     1  UNL1        0.1597
      3 O          64.5388   86.4549   14.6622 O.3     1  UNL1       -0.3533
      4 C          63.9781   85.3872   13.7703 C.3     1  UNL1        0.1315
      5 C          64.0745   83.8909   13.8131 C.3     1  UNL1        0.0311
      6 C          63.3041   83.3434   12.6482 C.3     1  UNL1        0.0041
      7 C          62.7316   84.5013   11.8856 C.3     1  UNL1        0.0203
      8 C          63.1482   85.7644   12.5791 C.3     1  UNL1        0.1066
      9 N          62.8790   87.2094   12.2799 N.3     1  UNL1       -0.1534
     10 C          63.1706   89.7221   12.8724 C.3     1  UNL1        0.0261
     11 C          62.4161   91.0019   12.6657 C.3     1  UNL1        0.0020
     12 C          61.6796   89.7485   13.0350 C.3     1  UNL1        0.0020
     13 C          64.5680   90.1976   12.6059 C.3     1  UNL1        0.0867
     14 O          64.9990   91.8584   14.5569 O.2     1  UNL1       -0.2749
     15 C          65.0056   91.5485   13.0892 C.2     1  UNL1        0.2257
     16 N          65.4499   92.5896   12.1049 N.am    1  UNL1       -0.2795
     17 C          65.5097   92.4258   10.6151 C.3     1  UNL1        0.0935
     18 C          66.0091   93.7122   10.0270 C.3     1  UNL1        0.0257
     19 C          66.2578   94.6709   11.1533 C.3     1  UNL1        0.0509
     20 C          65.9123   93.9772   12.4376 C.3     1  UNL1        0.0959
     21 C          66.7635   96.0768   11.0191 C.3     1  UNL1        0.1388
     22 O          67.1582   96.6066    9.6725 O.3     1  UNL1       -0.3819
     23 H          67.9348   96.1232    9.3498 H       1  UNL1        0.2104
     24 S          62.0491   87.5867   11.0887 S.O2    1  UNL1        0.0634
     25 O          60.8329   87.0150   11.7550 O.2     1  UNL1       -0.1528
     26 O          62.9304   88.1680   10.2474 O.2     1  UNL1       -0.1528
     27 C          61.2191   87.9639    9.8975 C.ar    1  UNL1        0.1223
     28 C          61.0061   89.4097    9.5594 C.ar    1  UNL1        0.0208
     29 C          60.1762   89.7870    8.3682 C.ar    1  UNL1        0.0128
     30 C          59.5592   88.7185    7.5153 C.ar    1  UNL1        0.0578
     31 CL         58.7292   89.0958    6.3242 Cl      1  UNL1       -0.0822
     32 C          59.7722   87.2727    7.8534 C.ar    1  UNL1        0.0128
     33 C          60.6022   86.8954    9.0445 C.ar    1  UNL1        0.0208
@<TRIPOS>BOND
     1    14    15    2
     2    15    13    1
     3    13    10    1
     4     1    10    1
     5     1     2    1
     6     2     3    1
     7     3     4    1
     8     4     5    1
     9     5     6    1
    10     6     7    1
    11     8     7    1
    12     8     9    1
    13     9    24    1
    14    24    25    2
    15    24    26    2
    16    24    27    1
    17    27    28   ar
    18    28    29   ar
    19    29    30   ar
    20    30    31    1
    21    30    32   ar
    22    32    33   ar
    23    10    11    1
    24    11    12    1
    25    15    16   am
    26    16    17    1
    27    17    18    1
    28    18    19    1
    29    19    21    1
    30    21    22    1
    31    19    20    1
    32    12    10    1
    33    20    16    1
    34     9     1    1
    35    33    27   ar
    36     8     4    1
    37    22    23    1
@<TRIPOS>MOLECULE
*****
 33 37 0 0 0
SMALL
GASTEIGER

@<TRIPOS>ATOM
      1 C          64.5548   90.3729   14.2851 C.3     1  UNL1        0.1095
      2 C          65.6058   91.1200   15.0513 C.3     1  UNL1        0.1597
      3 O          66.2752   92.3138   14.4374 O.3     1  UNL1       -0.3533
      4 C          65.8935   92.7604   13.0573 C.3     1  UNL1        0.1315
      5 C          66.3763   93.8920   12.1992 C.3     1  UNL1        0.0311
      6 C          65.6236   93.8443   10.9026 C.3     1  UNL1        0.0041
      7 C          64.6756   92.6833   10.9594 C.3     1  UNL1        0.0203
      8 C          64.8424   92.0133   12.2911 C.3     1  UNL1        0.1066
      9 N          64.1731   90.8196   12.9050 N.3     1  UNL1       -0.1534
     10 C          63.8853   89.1791   14.8990 C.3     1  UNL1        0.0261
     11 C          63.0620   88.3561   15.8448 C.3     1  UNL1        0.0020
     12 C          63.2095   89.8320   16.0682 C.3     1  UNL1        0.0020
     13 C          64.3287   88.1117   13.9430 C.3     1  UNL1        0.0867
     14 O          64.9487   86.2600   15.6568 O.2     1  UNL1       -0.2749
     15 C          64.3088   86.6722   14.3642 C.2     1  UNL1        0.2257
     16 N          63.6489   85.6448   13.4929 N.am    1  UNL1       -0.2795
     17 C          62.9715   85.9058   12.1804 C.3     1  UNL1        0.0935
     18 C          62.4545   84.5983   11.6575 C.3     1  UNL1        0.0257
     19 C          62.8124   83.5294   12.6469 C.3     1  UNL1        0.0509
     20 C          63.5506   84.1760   13.7813 C.3     1  UNL1        0.0959
     21 C          62.4890   82.0698   12.5237 C.3     1  UNL1        0.1388
     22 O          61.6433   81.3985   13.5649 O.3     1  UNL1       -0.3819
     23 H          62.1187   81.3886   14.4104 H       1  UNL1        0.2104
     24 S          63.1220   90.0725   12.1388 S.O2    1  UNL1        0.0634
     25 O          62.0865   90.5113   13.1314 O.2     1  UNL1       -0.1528
     26 O          63.7973   89.5267   11.1052 O.2     1  UNL1       -0.1528
     27 C          62.0708   89.3255   11.3726 C.ar    1  UNL1        0.1223
     28 C          60.6593   89.2866   11.8788 C.ar    1  UNL1        0.0208
     29 C          59.6081   88.5395   11.1127 C.ar    1  UNL1        0.0128
     30 C          59.9684   87.8314    9.8405 C.ar    1  UNL1        0.0578
     31 CL         58.9172   87.0844    9.0744 Cl      1  UNL1       -0.0822
     32 C          61.3799   87.8703    9.3342 C.ar    1  UNL1        0.0128
     33 C          62.4311   88.6174   10.1003 C.ar    1  UNL1        0.0208
@<TRIPOS>BOND
     1    14    15    2
     2    15    13    1
     3    13    10    1
     4     1    10    1
     5     1     2    1
     6     2     3    1
     7     3     4    1
     8     4     5    1
     9     5     6    1
    10     6     7    1
    11     8     7    1
    12     8     9    1
    13     9    24    1
    14    24    25    2
    15    24    26    2
    16    24    27    1
    17    27    28   ar
    18    28    29   ar
    19    29    30   ar
    20    30    31    1
    21    30    32   ar
    22    32    33   ar
    23    10    11    1
    24    11    12    1
    25    15    16   am
    26    16    17    1
    27    17    18    1
    28    18    19    1
    29    19    21    1
    30    21    22    1
    31    19    20    1
    32    12    10    1
    33    20    16    1
    34     9     1    1
    35    33    27   ar
    36     8     4    1
    37    22    23    1
@<TRIPOS>MOLECULE
*****
 33 37 0 0 0
SMALL
GASTEIGER

@<TRIPOS>ATOM
      1 C          61.1278   89.3436   10.8553 C.3     1  UNL1        0.1095
      2 C          60.4313   90.5041   10.2087 C.3     1  UNL1        0.1597
      3 O          59.6842   90.3086    8.9226 O.3     1  UNL1       -0.3533
      4 C          59.6337   88.9526    8.2834 C.3     1  UNL1        0.1315
      5 C          58.9805   88.4593    7.0264 C.3     1  UNL1        0.0311
      6 C          59.2734   86.9940    6.8962 C.3     1  UNL1        0.0041
      7 C          60.1075   86.5816    8.0727 C.3     1  UNL1        0.0203
      8 C          60.3302   87.7921    8.9300 C.3     1  UNL1        0.1066
      9 N          61.0772   87.9876   10.2160 N.3     1  UNL1       -0.1534
     10 C          61.8749   89.5391   12.1413 C.3     1  UNL1        0.0261
     11 C          62.1363   89.6905   13.6105 C.3     1  UNL1        0.0020
     12 C          60.7360   89.4803   13.1157 C.3     1  UNL1        0.0020
     13 C          63.2732   89.6658   11.6135 C.3     1  UNL1        0.0867
     14 O          63.7266   91.9174   10.3991 O.2     1  UNL1       -0.2749
     15 C          63.9408   91.0084   11.5729 C.2     1  UNL1        0.2257
     16 N          64.8226   91.4421   12.7063 N.am    1  UNL1       -0.2795
     17 C          65.1291   90.6453   13.9396 C.3     1  UNL1        0.0935
     18 C          66.0486   91.4595   14.8008 C.3     1  UNL1        0.0257
     19 C          66.3104   92.7594   14.0997 C.3     1  UNL1        0.0509
     20 C          65.5527   92.7487   12.8052 C.3     1  UNL1        0.0959
     21 C          67.1776   93.8744   14.6045 C.3     1  UNL1        0.1388
     22 O          67.6268   93.8862   16.0356 O.3     1  UNL1       -0.3819
     23 H          66.8577   94.0038   16.6149 H       1  UNL1        0.2104
     24 S          61.7737   86.8272   10.8627 S.O2    1  UNL1        0.0634
     25 O          62.8782   86.9272    9.8527 O.2     1  UNL1       -0.1528
     26 O          60.9610   86.4871   11.8855 O.2     1  UNL1       -0.1528
     27 C          62.4703   85.6667   11.5093 C.ar    1  UNL1        0.1223
     28 C          63.1191   85.8345   12.8513 C.ar    1  UNL1        0.0208
     29 C          63.8156   84.6741   13.4980 C.ar    1  UNL1        0.0128
     30 C          63.8635   83.3459   12.8026 C.ar    1  UNL1        0.0578
     31 CL         64.5600   82.1855   13.4493 Cl      1  UNL1       -0.0822
     32 C          63.2147   83.1781   11.4606 C.ar    1  UNL1        0.0128
     33 C          62.5181   84.3385   10.8139 C.ar    1  UNL1        0.0208
@<TRIPOS>BOND
     1    14    15    2
     2    15    13    1
     3    13    10    1
     4     1    10    1
     5     1     2    1
     6     2     3    1
     7     3     4    1
     8     4     5    1
     9     5     6    1
    10     6     7    1
    11     8     7    1
    12     8     9    1
    13     9    24    1
    14    24    25    2
    15    24    26    2
    16    24    27    1
    17    27    28   ar
    18    28    29   ar
    19    29    30   ar
    20    30    31    1
    21    30    32   ar
    22    32    33   ar
    23    10    11    1
    24    11    12    1
    25    15    16   am
    26    16    17    1
    27    17    18    1
    28    18    19    1
    29    19    21    1
    30    21    22    1
    31    19    20    1
    32    12    10    1
    33    20    16    1
    34     9     1    1
    35    33    27   ar
    36     8     4    1
    37    22    23    1
@<TRIPOS>MOLECULE
*****
 33 37 0 0 0
SMALL
GASTEIGER

@<TRIPOS>ATOM
      1 C          63.3163   88.2598   13.1541 C.3     1  UNL1        0.1095
      2 C          64.1410   87.8744   14.3462 C.3     1  UNL1        0.1597
      3 O          64.4662   86.4320   14.5987 O.3     1  UNL1       -0.3533
      4 C          63.9665   85.3750   13.6590 C.3     1  UNL1        0.1315
      5 C          64.1256   83.8835   13.6501 C.3     1  UNL1        0.0311
      6 C          63.3991   83.3471   12.4524 C.3     1  UNL1        0.0041
      7 C          62.7911   84.5070   11.7211 C.3     1  UNL1        0.0203
      8 C          63.1418   85.7604   12.4668 C.3     1  UNL1        0.1066
      9 N          62.8166   87.2028   12.2144 N.3     1  UNL1       -0.1534
     10 C          62.9911   89.7022   12.9015 C.3     1  UNL1        0.0261
     11 C          62.1883   90.9384   12.6236 C.3     1  UNL1        0.0020
     12 C          61.5027   89.6094   12.7406 C.3     1  UNL1        0.0020
     13 C          64.3667   90.2960   12.9748 C.3     1  UNL1        0.0867
     14 O          63.8188   91.2787   15.3167 O.2     1  UNL1       -0.2749
     15 C          64.7894   91.0609   14.1939 C.2     1  UNL1        0.2257
     16 N          66.1827   91.6081   14.2903 N.am    1  UNL1       -0.2795
     17 C          67.2576   91.4707   13.2531 C.3     1  UNL1        0.0935
     18 C          68.4850   92.1664   13.7625 C.3     1  UNL1        0.0257
     19 C          68.1687   92.7337   15.1145 C.3     1  UNL1        0.0509
     20 C          66.7458   92.3887   15.4407 C.3     1  UNL1        0.0959
     21 C          69.1100   93.5099   15.9872 C.3     1  UNL1        0.1388
     22 O          68.8071   94.9377   16.3332 O.3     1  UNL1       -0.3819
     23 H          68.8458   95.4802   15.5300 H       1  UNL1        0.2104
     24 S          61.9919   87.5882   11.0222 S.O2    1  UNL1        0.0634
     25 O          60.7675   87.0376   11.6913 O.2     1  UNL1       -0.1528
     26 O          62.8815   88.1528   10.1783 O.2     1  UNL1       -0.1528
     27 C          61.1670   87.9735    9.8300 C.ar    1  UNL1        0.1223
     28 C          60.5174   86.9120    8.9928 C.ar    1  UNL1        0.0208
     29 C          59.6925   87.2972    7.8006 C.ar    1  UNL1        0.0128
     30 C          59.5174   88.7441    7.4459 C.ar    1  UNL1        0.0578
     31 CL         58.6925   89.1293    6.2537 Cl      1  UNL1       -0.0822
     32 C          60.1670   89.8056    8.2831 C.ar    1  UNL1        0.0128
     33 C          60.9918   89.4204    9.4753 C.ar    1  UNL1        0.0208
@<TRIPOS>BOND
     1    14    15    2
     2    15    13    1
     3    13    10    1
     4     1    10    1
     5     1     2    1
     6     2     3    1
     7     3     4    1
     8     4     5    1
     9     5     6    1
    10     6     7    1
    11     8     7    1
    12     8     9    1
    13     9    24    1
    14    24    25    2
    15    24    26    2
    16    24    27    1
    17    27    28   ar
    18    28    29   ar
    19    29    30   ar
    20    30    31    1
    21    30    32   ar
    22    32    33   ar
    23    10    11    1
    24    11    12    1
    25    15    16   am
    26    16    17    1
    27    17    18    1
    28    18    19    1
    29    19    21    1
    30    21    22    1
    31    19    20    1
    32    12    10    1
    33    20    16    1
    34     9     1    1
    35    33    27   ar
    36     8     4    1
    37    22    23    1
@<TRIPOS>MOLECULE
*****
 33 37 0 0 0
SMALL
GASTEIGER

@<TRIPOS>ATOM
      1 C          62.0264   88.6767   11.2255 C.3     1  UNL1        0.1095
      2 C          61.6084   89.9968   10.6489 C.3     1  UNL1        0.1597
      3 O          60.7187   90.0403    9.4420 O.3     1  UNL1       -0.3533
      4 C          60.2470   88.7635    8.8117 C.3     1  UNL1        0.1315
      5 C          59.3704   88.4942    7.6247 C.3     1  UNL1        0.0311
      6 C          59.2466   87.0076    7.4677 C.3     1  UNL1        0.0041
      7 C          60.0468   86.3581    8.5576 C.3     1  UNL1        0.0203
      8 C          60.6651   87.4433    9.3883 C.3     1  UNL1        0.1066
      9 N          61.5548   87.3999   10.5951 N.3     1  UNL1       -0.1534
     10 C          62.9161   88.6333   12.4324 C.3     1  UNL1        0.0261
     11 C          63.9444   88.1439   13.4086 C.3     1  UNL1        0.0020
     12 C          63.6242   87.3339   12.1874 C.3     1  UNL1        0.0020
     13 C          62.5170   89.9177   13.0965 C.3     1  UNL1        0.0867
     14 O          62.8852   90.0781   15.6634 O.2     1  UNL1       -0.2749
     15 C          63.3017   90.4325   14.2666 C.2     1  UNL1        0.2257
     16 N          64.5031   91.3016   14.0400 N.am    1  UNL1       -0.2795
     17 C          65.0372   91.7376   12.7079 C.3     1  UNL1        0.0935
     18 C          66.2455   92.5929   12.9503 C.3     1  UNL1        0.0257
     19 C          66.4580   92.6854   14.4322 C.3     1  UNL1        0.0509
     20 C          65.3812   91.8874   15.1057 C.3     1  UNL1        0.0959
     21 C          67.5549   93.4430   15.1200 C.3     1  UNL1        0.1388
     22 O          68.9885   93.0790   14.8704 O.3     1  UNL1       -0.3819
     23 H          69.1619   92.1905   15.2186 H       1  UNL1        0.2104
     24 S          61.9728   86.0798   11.1717 S.O2    1  UNL1        0.0634
     25 O          62.8574   85.8412    9.9840 O.2     1  UNL1       -0.1528
     26 O          61.2914   86.0006   12.3344 O.2     1  UNL1       -0.1528
     27 C          62.3909   84.7596   11.7482 C.ar    1  UNL1        0.1223
     28 C          62.2731   84.5143   13.2233 C.ar    1  UNL1        0.0208
     29 C          62.6911   83.1942   13.7999 C.ar    1  UNL1        0.0128
     30 C          63.2271   82.1193   12.9013 C.ar    1  UNL1        0.0578
     31 CL         63.6452   80.7992   13.4779 Cl      1  UNL1       -0.0822
     32 C          63.3450   82.3646   11.4262 C.ar    1  UNL1        0.0128
     33 C          62.9269   83.6848   10.8496 C.ar    1  UNL1        0.0208
@<TRIPOS>BOND
     1    14    15    2
     2    15    13    1
     3    13    10    1
     4     1    10    1
     5     1     2    1
     6     2     3    1
     7     3     4    1
     8     4     5    1
     9     5     6    1
    10     6     7    1
    11     8     7    1
    12     8     9    1
    13     9    24    1
    14    24    25    2
    15    24    26    2
    16    24    27    1
    17    27    28   ar
    18    28    29   ar
    19    29    30   ar
    20    30    31    1
    21    30    32   ar
    22    32    33   ar
    23    10    11    1
    24    11    12    1
    25    15    16   am
    26    16    17    1
    27    17    18    1
    28    18    19    1
    29    19    21    1
    30    21    22    1
    31    19    20    1
    32    12    10    1
    33    20    16    1
    34     9     1    1
    35    33    27   ar
    36     8     4    1
    37    22    23    1
@<TRIPOS>MOLECULE
*****
 33 37 0 0 0
SMALL
GASTEIGER

@<TRIPOS>ATOM
      1 C          64.6166   91.5452   12.8437 C.3     1  UNL1        0.1095
      2 C          64.2756   90.6921   14.0293 C.3     1  UNL1        0.1597
      3 O          65.0135   90.8754   15.3224 O.3     1  UNL1       -0.3533
      4 C          66.0924   91.9119   15.4297 C.3     1  UNL1        0.1315
      5 C          66.9845   92.3181   16.5650 C.3     1  UNL1        0.0311
      6 C          67.8770   93.4223   16.0810 C.3     1  UNL1        0.0041
      7 C          67.5363   93.6986   14.6466 C.3     1  UNL1        0.0203
      8 C          66.4334   92.7651   14.2440 C.3     1  UNL1        0.1066
      9 N          65.6955   92.5817   12.9510 N.3     1  UNL1       -0.1534
     10 C          63.8787   91.3619   11.5506 C.3     1  UNL1        0.0261
     11 C          63.5582   91.4396   10.0873 C.3     1  UNL1        0.0020
     12 C          64.8243   92.0500   10.6112 C.3     1  UNL1        0.0020
     13 C          62.6768   90.6101   12.0409 C.3     1  UNL1        0.0867
     14 O          63.1759   88.0791   12.3497 O.2     1  UNL1       -0.2749
     15 C          62.4640   89.1841   11.6271 C.2     1  UNL1        0.2257
     16 N          61.5391   88.8630   10.4906 N.am    1  UNL1       -0.2795
     17 C          60.7625   89.8564    9.6783 C.3     1  UNL1        0.0935
     18 C          59.9719   89.0995    8.6525 C.3     1  UNL1        0.0257
     19 C          60.2601   87.6384    8.8308 C.3     1  UNL1        0.0509
     20 C          61.2286   87.4921    9.9668 C.3     1  UNL1        0.0959
     21 C          59.6812   86.5197    8.0162 C.3     1  UNL1        0.1388
     22 O          58.1978   86.4296    7.8128 O.3     1  UNL1       -0.3819
     23 H          57.7651   86.2523    8.6627 H       1  UNL1        0.2104
     24 S          66.0365   93.4349   11.7653 S.O2    1  UNL1        0.0634
     25 O          67.0440   92.4159   11.3219 O.2     1  UNL1       -0.1528
     26 O          65.2310   94.5105   11.8944 O.2     1  UNL1       -0.1528
     27 C          66.3776   94.2880   10.5796 C.ar    1  UNL1        0.1223
     28 C          67.4657   93.8635    9.6385 C.ar    1  UNL1        0.0208
     29 C          67.8069   94.7166    8.4527 C.ar    1  UNL1        0.0128
     30 C          67.0599   95.9941    8.2082 C.ar    1  UNL1        0.0578
     31 CL         67.4010   96.8471    7.0225 Cl      1  UNL1       -0.0822
     32 C          65.9717   96.4186    9.1494 C.ar    1  UNL1        0.0128
     33 C          65.6306   95.5655   10.3351 C.ar    1  UNL1        0.0208
@<TRIPOS>BOND
     1    14    15    2
     2    15    13    1
     3    13    10    1
     4     1    10    1
     5     1     2    1
     6     2     3    1
     7     3     4    1
     8     4     5    1
     9     5     6    1
    10     6     7    1
    11     8     7    1
    12     8     9    1
    13     9    24    1
    14    24    25    2
    15    24    26    2
    16    24    27    1
    17    27    28   ar
    18    28    29   ar
    19    29    30   ar
    20    30    31    1
    21    30    32   ar
    22    32    33   ar
    23    10    11    1
    24    11    12    1
    25    15    16   am
    26    16    17    1
    27    17    18    1
    28    18    19    1
    29    19    21    1
    30    21    22    1
    31    19    20    1
    32    12    10    1
    33    20    16    1
    34     9     1    1
    35    33    27   ar
    36     8     4    1
    37    22    23    1
@<TRIPOS>MOLECULE
*****
 33 37 0 0 0
SMALL
GASTEIGER

@<TRIPOS>ATOM
      1 C          63.0570   89.4329   14.1131 C.3     1  UNL1        0.1095
      2 C          61.8578   88.7600   13.5141 C.3     1  UNL1        0.1597
      3 O          61.4588   89.0585   12.0992 O.3     1  UNL1       -0.3533
      4 C          62.2592   90.0300   11.2835 C.3     1  UNL1        0.1315
      5 C          62.1091   90.5194    9.8735 C.3     1  UNL1        0.0311
      6 C          63.2156   91.4948    9.6012 C.3     1  UNL1        0.0041
      7 C          64.0496   91.6082   10.8428 C.3     1  UNL1        0.0203
      8 C          63.4586   90.7029   11.8825 C.3     1  UNL1        0.1066
      9 N          63.8574   90.4044   13.2973 N.3     1  UNL1       -0.1534
     10 C          63.4560   89.1343   15.5280 C.3     1  UNL1        0.0261
     11 C          63.6192   89.2953   17.0103 C.3     1  UNL1        0.0020
     12 C          62.9157   90.3540   16.2139 C.3     1  UNL1        0.0020
     13 C          64.1349   87.8110   15.3334 C.3     1  UNL1        0.0867
     14 O          63.1256   86.5118   17.3443 O.2     1  UNL1       -0.2749
     15 C          63.5227   86.5637   15.8987 C.2     1  UNL1        0.2257
     16 N          63.3076   85.3683   15.0184 N.am    1  UNL1       -0.2795
     17 C          63.6526   85.2726   13.5618 C.3     1  UNL1        0.0935
     18 C          63.2680   83.9039   13.0834 C.3     1  UNL1        0.0257
     19 C          62.6853   83.1539   14.2443 C.3     1  UNL1        0.0509
     20 C          62.7098   84.0589   15.4403 C.3     1  UNL1        0.0959
     21 C          62.1688   81.7459   14.2146 C.3     1  UNL1        0.1388
     22 O          63.1285   80.5939   14.2561 O.3     1  UNL1       -0.3819
     23 H          63.6620   80.5881   13.4460 H       1  UNL1        0.2104
     24 S          65.0568   91.0773   13.8963 S.O2    1  UNL1        0.0634
     25 O          64.4067   92.4142   13.6961 O.2     1  UNL1       -0.1528
     26 O          65.8856   90.0564   14.2016 O.2     1  UNL1       -0.1528
     27 C          66.2561   91.7503   14.4954 C.ar    1  UNL1        0.1223
     28 C          66.1497   92.4209   15.8329 C.ar    1  UNL1        0.0208
     29 C          67.3489   93.0939   16.4320 C.ar    1  UNL1        0.0128
     30 C          68.6545   93.0963   15.6935 C.ar    1  UNL1        0.0578
     31 CL         69.8537   93.7693   16.2926 Cl      1  UNL1       -0.0822
     32 C          68.7609   92.4256   14.3560 C.ar    1  UNL1        0.0128
     33 C          67.5617   91.7526   13.7569 C.ar    1  UNL1        0.0208
@<TRIPOS>BOND
     1    14    15    2
     2    15    13    1
     3    13    10    1
     4     1    10    1
     5     1     2    1
     6     2     3    1
     7     3     4    1
     8     4     5    1
     9     5     6    1
    10     6     7    1
    11     8     7    1
    12     8     9    1
    13     9    24    1
    14    24    25    2
    15    24    26    2
    16    24    27    1
    17    27    28   ar
    18    28    29   ar
    19    29    30   ar
    20    30    31    1
    21    30    32   ar
    22    32    33   ar
    23    10    11    1
    24    11    12    1
    25    15    16   am
    26    16    17    1
    27    17    18    1
    28    18    19    1
    29    19    21    1
    30    21    22    1
    31    19    20    1
    32    12    10    1
    33    20    16    1
    34     9     1    1
    35    33    27   ar
    36     8     4    1
    37    22    23    1
