@<TRIPOS>MOLECULE
*****
 33 36 0 0 0
SMALL
GASTEIGER

@<TRIPOS>ATOM
      1 C          63.7016   85.2460   14.7613 C.ar    1  UNL1        0.1471
      2 N          64.0644   86.3272   13.7870 N.ar    1  UNL1       -0.2109
      3 C          63.9453   87.6458   14.4921 C.ar    1  UNL1        0.1686
      4 C          63.5089   87.3795   15.9023 C.ar    1  UNL1        0.1113
      5 N          63.3583   85.8964   16.0687 N.ar    1  UNL1       -0.3363
      6 H          63.0826   85.4314   16.8915 H       1  UNL1        0.1673
      7 N          64.2152   88.9939   13.8923 N.ar    1  UNL1       -0.2565
      8 C          65.2011   89.9196   14.5411 C.ar    1  UNL1        0.0857
      9 C          65.4710   91.2677   13.9413 C.ar    1  UNL1        0.0340
     10 C          64.7551   91.6900   12.6928 C.ar    1  UNL1        0.0569
     11 C          63.7692   90.7643   12.0439 C.ar    1  UNL1        0.0758
     12 C          63.4993   89.4162   12.6437 C.ar    1  UNL1        0.2672
     13 O          62.5134   88.4904   11.9948 O.2     1  UNL1       -0.2665
     14 N          65.0250   93.0382   12.0930 N.am    1  UNL1       -0.2790
     15 C          66.1146   93.2017   11.0751 C.2     1  UNL1        0.2678
     16 O          66.9342   92.0171   10.6569 O.2     1  UNL1       -0.2681
     17 H          64.4871   93.8157   12.3675 H       1  UNL1        0.1552
     18 C          66.3845   94.5498   10.4754 C.ar    1  UNL1        0.1419
     19 C          65.4385   95.7139   10.4611 C.ar    1  UNL1        0.0607
     20 S          66.1172   96.8541    9.7615 S.2     1  UNL1       -0.0638
     21 C          67.4826   96.3948    9.3435 C.ar    1  UNL1        0.1347
     22 N          67.6477   94.9707    9.7847 N.ar    1  UNL1       -0.2317
     23 C          63.6851   83.7731   14.4781 C.3     1  UNL1        0.1567
     24 C          63.8631   83.4899   15.9404 C.3     1  UNL1        0.0417
     25 O          63.6685   82.3001   14.1949 O.3     1  UNL1       -0.3756
     26 H          62.7687   82.0267   13.9573 H       1  UNL1        0.2112
     27 C          62.9730   84.9057    8.6292 C.3     1  UNL1        0.0310
     28 C          63.1510   84.6226   10.0914 C.ar    1  UNL1       -0.0219
     29 C          62.2093   85.2242   11.0920 C.ar    1  UNL1       -0.0045
     30 C          62.3873   84.9411   12.5542 C.ar    1  UNL1       -0.0019
     31 C          63.5071   84.0562   13.0159 C.ar    1  UNL1        0.0084
     32 C          64.4488   83.4545   12.0154 C.ar    1  UNL1       -0.0019
     33 C          64.2708   83.7377   10.5531 C.ar    1  UNL1       -0.0045
@<TRIPOS>BOND
     1    27    28    1
     2    28    29   ar
     3    29    30   ar
     4    30    31   ar
     5    31    23    1
     6    23    24    1
     7    23    25    1
     8    23     1    1
     9     1     2   ar
    10     2     3   ar
    11     3     7    1
    12     7     8   ar
    13     8     9   ar
    14     9    10   ar
    15    10    14    1
    16    14    15   am
    17    15    16    2
    18    15    18    1
    19    18    19   ar
    20    19    20   ar
    21    20    21   ar
    22    21    22   ar
    23    10    11   ar
    24    11    12   ar
    25    12    13    2
    26     3     4   ar
    27     4     5   ar
    28    31    32   ar
    29    32    33   ar
    30    33    28   ar
    31     5     1   ar
    32    12     7   ar
    33    22    18   ar
    34    25    26    1
    35    14    17    1
    36     5     6    1
@<TRIPOS>MOLECULE
*****
 33 36 0 0 0
SMALL
GASTEIGER

@<TRIPOS>ATOM
      1 C          60.4410   88.0678    9.0049 C.ar    1  UNL1        0.1471
      2 N          61.8006   88.4659    9.4977 N.ar    1  UNL1       -0.2109
      3 C          61.6546   89.7318   10.2891 C.ar    1  UNL1        0.1686
      4 C          60.2047   90.1161   10.2854 C.ar    1  UNL1        0.1113
      5 N          59.4546   89.0877    9.4918 N.ar    1  UNL1       -0.3363
      6 H          58.4852   89.0829    9.3205 H       1  UNL1        0.1673
      7 N          62.7638   90.4817   10.9654 N.ar    1  UNL1       -0.2565
      8 C          63.6728   91.3629   10.1609 C.ar    1  UNL1        0.0857
      9 C          64.7819   92.1128   10.8371 C.ar    1  UNL1        0.0340
     10 C          64.9821   91.9815   12.3178 C.ar    1  UNL1        0.0569
     11 C          64.0731   91.1003   13.1223 C.ar    1  UNL1        0.0758
     12 C          62.9640   90.3504   12.4462 C.ar    1  UNL1        0.2672
     13 O          62.0550   89.4692   13.2507 O.2     1  UNL1       -0.2665
     14 N          66.0914   92.7315   12.9941 N.am    1  UNL1       -0.2790
     15 C          66.8599   92.0885   14.1103 C.2     1  UNL1        0.2678
     16 O          66.5193   90.6955   14.5502 O.2     1  UNL1       -0.2681
     17 H          66.3149   93.6457   12.7054 H       1  UNL1        0.1552
     18 C          67.9691   92.8384   14.7865 C.ar    1  UNL1        0.1419
     19 C          67.8113   93.8323   15.8988 C.ar    1  UNL1        0.0607
     20 S          69.1755   94.3343   16.2688 S.2     1  UNL1       -0.0638
     21 C          70.1765   93.6507   15.3851 C.ar    1  UNL1        0.1347
     22 N          69.4308   92.7262   14.4690 N.ar    1  UNL1       -0.2317
     23 C          60.1234   86.8617    8.1717 C.3     1  UNL1        0.1567
     24 C          59.0811   87.6470    7.4322 C.3     1  UNL1        0.0417
     25 O          59.8059   85.6555    7.3384 O.3     1  UNL1       -0.3756
     26 H          60.5335   85.4900    6.7187 H       1  UNL1        0.2112
     27 C          64.2929   83.7205   11.1295 C.3     1  UNL1        0.0310
     28 C          63.2505   84.5058   10.3900 C.ar    1  UNL1       -0.0219
     29 C          63.3312   84.6409    8.8983 C.ar    1  UNL1       -0.0045
     30 C          62.2888   85.4262    8.1589 C.ar    1  UNL1       -0.0019
     31 C          61.1658   86.0764    8.9111 C.ar    1  UNL1        0.0084
     32 C          61.0851   85.9413   10.4028 C.ar    1  UNL1       -0.0019
     33 C          62.1275   85.1560   11.1423 C.ar    1  UNL1       -0.0045
@<TRIPOS>BOND
     1    27    28    1
     2    28    29   ar
     3    29    30   ar
     4    30    31   ar
     5    31    23    1
     6    23    24    1
     7    23    25    1
     8    23     1    1
     9     1     2   ar
    10     2     3   ar
    11     3     7    1
    12     7     8   ar
    13     8     9   ar
    14     9    10   ar
    15    10    14    1
    16    14    15   am
    17    15    16    2
    18    15    18    1
    19    18    19   ar
    20    19    20   ar
    21    20    21   ar
    22    21    22   ar
    23    10    11   ar
    24    11    12   ar
    25    12    13    2
    26     3     4   ar
    27     4     5   ar
    28    31    32   ar
    29    32    33   ar
    30    33    28   ar
    31     5     1   ar
    32    12     7   ar
    33    22    18   ar
    34    25    26    1
    35    14    17    1
    36     5     6    1
@<TRIPOS>MOLECULE
*****
 33 36 0 0 0
SMALL
GASTEIGER

@<TRIPOS>ATOM
      1 C          63.1328   83.9584   13.4439 C.ar    1  UNL1        0.1471
      2 N          62.3347   85.1479   12.9987 N.ar    1  UNL1       -0.2109
      3 C          62.5473   85.3234   11.5243 C.ar    1  UNL1        0.1686
      4 C          63.4767   84.2423   11.0581 C.ar    1  UNL1        0.1113
      5 N          63.8386   83.3987   12.2445 N.ar    1  UNL1       -0.3363
      6 H          64.4347   82.6152   12.2372 H       1  UNL1        0.1673
      7 N          61.9375   86.3923   10.6666 N.ar    1  UNL1       -0.2565
      8 C          61.0692   86.0156    9.5029 C.ar    1  UNL1        0.0857
      9 C          60.4594   87.0845    8.6452 C.ar    1  UNL1        0.0340
     10 C          60.7178   88.5299    8.9513 C.ar    1  UNL1        0.0569
     11 C          61.5860   88.9066   10.1150 C.ar    1  UNL1        0.0758
     12 C          62.1959   87.8378   10.9726 C.ar    1  UNL1        0.2672
     13 O          63.0641   88.2145   12.1364 O.2     1  UNL1       -0.2665
     14 N          60.1079   89.5988    8.0935 N.am    1  UNL1       -0.2790
     15 C          59.4317   89.2322    6.8058 C.2     1  UNL1        0.2678
     16 O          59.3652   87.7967    6.3758 O.2     1  UNL1       -0.2681
     17 H          60.1515   90.5410    8.3758 H       1  UNL1        0.1552
     18 C          58.8218   90.3011    5.9481 C.ar    1  UNL1        0.1419
     19 C          59.5703   91.2704    5.0820 C.ar    1  UNL1        0.0607
     20 S          58.5674   92.1567    4.4046 S.2     1  UNL1       -0.0638
     21 C          57.1992   91.7351    4.8521 C.ar    1  UNL1        0.1347
     22 N          57.3565   90.5883    5.8061 N.ar    1  UNL1       -0.2317
     23 C          63.2113   83.4227   14.8427 C.3     1  UNL1        0.1567
     24 C          63.1964   82.0217   14.3070 C.3     1  UNL1        0.0417
     25 O          63.2897   82.8870   16.2416 O.3     1  UNL1       -0.3756
     26 H          64.1767   83.0476   16.6001 H       1  UNL1        0.2112
     27 C          63.2708   89.0267   16.9855 C.3     1  UNL1        0.0310
     28 C          63.2559   87.6257   16.4498 C.ar    1  UNL1       -0.0219
     29 C          62.3026   86.6160   17.0170 C.ar    1  UNL1       -0.0045
     30 C          62.2877   85.2150   16.4812 C.ar    1  UNL1       -0.0019
     31 C          63.2261   84.8237   15.3784 C.ar    1  UNL1        0.0084
     32 C          64.1794   85.8334   14.8113 C.ar    1  UNL1       -0.0019
     33 C          64.1943   87.2344   15.3470 C.ar    1  UNL1       -0.0045
@<TRIPOS>BOND
     1    27    28    1
     2    28    29   ar
     3    29    30   ar
     4    30    31   ar
     5    31    23    1
     6    23    24    1
     7    23    25    1
     8    23     1    1
     9     1     2   ar
    10     2     3   ar
    11     3     7    1
    12     7     8   ar
    13     8     9   ar
    14     9    10   ar
    15    10    14    1
    16    14    15   am
    17    15    16    2
    18    15    18    1
    19    18    19   ar
    20    19    20   ar
    21    20    21   ar
    22    21    22   ar
    23    10    11   ar
    24    11    12   ar
    25    12    13    2
    26     3     4   ar
    27     4     5   ar
    28    31    32   ar
    29    32    33   ar
    30    33    28   ar
    31     5     1   ar
    32    12     7   ar
    33    22    18   ar
    34    25    26    1
    35    14    17    1
    36     5     6    1
@<TRIPOS>MOLECULE
*****
 33 36 0 0 0
SMALL
GASTEIGER

@<TRIPOS>ATOM
      1 C          62.9645   84.6798   13.5745 C.ar    1  UNL1        0.1471
      2 N          63.5713   86.0453   13.7060 N.ar    1  UNL1       -0.2109
      3 C          63.0089   86.9094   12.6165 C.ar    1  UNL1        0.1686
      4 C          62.0544   86.0780   11.8116 C.ar    1  UNL1        0.1113
      5 N          62.0271   84.7000   12.4037 N.ar    1  UNL1       -0.3363
      6 H          61.4884   83.9420   12.0806 H       1  UNL1        0.1673
      7 N          63.3423   88.3517   12.3743 N.ar    1  UNL1       -0.2565
      8 C          62.9935   88.9923   11.0636 C.ar    1  UNL1        0.0857
      9 C          63.3269   90.4346   10.8215 C.ar    1  UNL1        0.0340
     10 C          64.0091   91.2362   11.8901 C.ar    1  UNL1        0.0569
     11 C          64.3579   90.5956   13.2008 C.ar    1  UNL1        0.0758
     12 C          64.0245   89.1534   13.4429 C.ar    1  UNL1        0.2672
     13 O          64.3733   88.5128   14.7537 O.2     1  UNL1       -0.2665
     14 N          64.3425   92.6786   11.6479 N.am    1  UNL1       -0.2790
     15 C          65.6621   93.0515   11.0400 C.2     1  UNL1        0.2678
     16 O          66.6484   91.9821   10.6743 O.2     1  UNL1       -0.2681
     17 H          63.6952   93.3804   11.8879 H       1  UNL1        0.1552
     18 C          65.9955   94.4938   10.7979 C.ar    1  UNL1        0.1419
     19 C          66.3250   95.1119    9.4715 C.ar    1  UNL1        0.0607
     20 S          66.5910   96.5713    9.6935 S.2     1  UNL1       -0.0638
     21 C          66.4259   96.8552   11.1571 C.ar    1  UNL1        0.1347
     22 N          66.0578   95.5712   11.8396 N.ar    1  UNL1       -0.2317
     23 C          63.2459   83.5012   14.4586 C.3     1  UNL1        0.1567
     24 C          63.2810   84.4063   15.6542 C.3     1  UNL1        0.0417
     25 O          63.5272   82.3225   15.3426 O.3     1  UNL1       -0.3756
     26 H          62.7283   81.7775   15.4188 H       1  UNL1        0.2112
     27 C          63.1052   79.8806    9.6762 C.3     1  UNL1        0.0310
     28 C          63.1403   80.7857   10.8718 C.ar    1  UNL1       -0.0219
     29 C          63.9290   82.0607   10.8242 C.ar    1  UNL1       -0.0045
     30 C          63.9642   82.9659   12.0198 C.ar    1  UNL1       -0.0019
     31 C          63.2107   82.5960   13.2630 C.ar    1  UNL1        0.0084
     32 C          62.4220   81.3210   13.3105 C.ar    1  UNL1       -0.0019
     33 C          62.3868   80.4159   12.1149 C.ar    1  UNL1       -0.0045
@<TRIPOS>BOND
     1    27    28    1
     2    28    29   ar
     3    29    30   ar
     4    30    31   ar
     5    31    23    1
     6    23    24    1
     7    23    25    1
     8    23     1    1
     9     1     2   ar
    10     2     3   ar
    11     3     7    1
    12     7     8   ar
    13     8     9   ar
    14     9    10   ar
    15    10    14    1
    16    14    15   am
    17    15    16    2
    18    15    18    1
    19    18    19   ar
    20    19    20   ar
    21    20    21   ar
    22    21    22   ar
    23    10    11   ar
    24    11    12   ar
    25    12    13    2
    26     3     4   ar
    27     4     5   ar
    28    31    32   ar
    29    32    33   ar
    30    33    28   ar
    31     5     1   ar
    32    12     7   ar
    33    22    18   ar
    34    25    26    1
    35    14    17    1
    36     5     6    1
@<TRIPOS>MOLECULE
*****
 33 36 0 0 0
SMALL
GASTEIGER

@<TRIPOS>ATOM
      1 C          65.9301   91.8160   14.8264 C.ar    1  UNL1        0.1471
      2 N          66.0223   90.3739   14.4242 N.ar    1  UNL1       -0.2109
      3 C          64.6420   89.7890   14.4760 C.ar    1  UNL1        0.1686
      4 C          63.6967   90.8696   14.9103 C.ar    1  UNL1        0.1113
      5 N          64.4928   92.1223   15.1269 N.ar    1  UNL1       -0.3363
      6 H          64.1347   92.9928   15.4155 H       1  UNL1        0.1673
      7 N          64.2720   88.3722   14.1507 N.ar    1  UNL1       -0.2565
      8 C          64.6765   87.2607   15.0732 C.ar    1  UNL1        0.0857
      9 C          64.3066   85.8439   14.7479 C.ar    1  UNL1        0.0340
     10 C          63.5321   85.5386   13.5001 C.ar    1  UNL1        0.0569
     11 C          63.1276   86.6501   12.5777 C.ar    1  UNL1        0.0758
     12 C          63.4976   88.0669   12.9029 C.ar    1  UNL1        0.2672
     13 O          63.0931   89.1783   11.9804 O.2     1  UNL1       -0.2665
     14 N          63.1622   84.1218   13.1749 N.am    1  UNL1       -0.2790
     15 C          62.6099   83.2264   14.2441 C.2     1  UNL1        0.2678
     16 O          62.4276   83.7479   15.6387 O.2     1  UNL1       -0.2681
     17 H          63.2818   83.7795   12.2595 H       1  UNL1        0.1552
     18 C          62.2400   81.8096   13.9188 C.ar    1  UNL1        0.1419
     19 C          63.0620   80.8460   13.1152 C.ar    1  UNL1        0.0607
     20 S          62.3131   79.5486   13.0397 S.2     1  UNL1       -0.0638
     21 C          61.0282   79.7103   13.7966 C.ar    1  UNL1        0.1347
     22 N          60.9830   81.1077   14.3399 N.ar    1  UNL1       -0.2317
     23 C          67.0743   92.7821   14.9130 C.3     1  UNL1        0.1567
     24 C          66.8239   92.9469   16.3828 C.3     1  UNL1        0.0417
     25 O          68.2184   93.7482   14.9996 O.3     1  UNL1       -0.3756
     26 H          69.0554   93.2676   14.9033 H       1  UNL1        0.2112
     27 C          68.0757   92.1230    9.0340 C.3     1  UNL1        0.0310
     28 C          67.8253   92.2878   10.5038 C.ar    1  UNL1       -0.0219
     29 C          66.6762   93.1263   10.9794 C.ar    1  UNL1       -0.0045
     30 C          66.4258   93.2910   12.4492 C.ar    1  UNL1       -0.0019
     31 C          67.3246   92.6173   13.4433 C.ar    1  UNL1        0.0084
     32 C          68.4738   91.7788   12.9676 C.ar    1  UNL1       -0.0019
     33 C          68.7241   91.6140   11.4978 C.ar    1  UNL1       -0.0045
@<TRIPOS>BOND
     1    27    28    1
     2    28    29   ar
     3    29    30   ar
     4    30    31   ar
     5    31    23    1
     6    23    24    1
     7    23    25    1
     8    23     1    1
     9     1     2   ar
    10     2     3   ar
    11     3     7    1
    12     7     8   ar
    13     8     9   ar
    14     9    10   ar
    15    10    14    1
    16    14    15   am
    17    15    16    2
    18    15    18    1
    19    18    19   ar
    20    19    20   ar
    21    20    21   ar
    22    21    22   ar
    23    10    11   ar
    24    11    12   ar
    25    12    13    2
    26     3     4   ar
    27     4     5   ar
    28    31    32   ar
    29    32    33   ar
    30    33    28   ar
    31     5     1   ar
    32    12     7   ar
    33    22    18   ar
    34    25    26    1
    35    14    17    1
    36     5     6    1
@<TRIPOS>MOLECULE
*****
 33 36 0 0 0
SMALL
GASTEIGER

@<TRIPOS>ATOM
      1 C          65.2179   91.4323   14.2767 C.ar    1  UNL1        0.1471
      2 N          65.3672   89.9425   14.1866 N.ar    1  UNL1       -0.2109
      3 C          64.0558   89.3716   13.7347 C.ar    1  UNL1        0.1686
      4 C          63.0959   90.5087   13.5454 C.ar    1  UNL1        0.1113
      5 N          63.8142   91.7822   13.8804 N.ar    1  UNL1       -0.3363
      6 H          63.4314   92.6886   13.8462 H       1  UNL1        0.1673
      7 N          63.7567   87.9188   13.5113 N.ar    1  UNL1       -0.2565
      8 C          64.2208   86.8961   14.5055 C.ar    1  UNL1        0.0857
      9 C          63.9218   85.4433   14.2821 C.ar    1  UNL1        0.0340
     10 C          63.1587   85.0133   13.0645 C.ar    1  UNL1        0.0569
     11 C          62.6946   86.0361   12.0702 C.ar    1  UNL1        0.0758
     12 C          62.9936   87.4888   12.2936 C.ar    1  UNL1        0.2672
     13 O          62.5295   88.5116   11.2994 O.2     1  UNL1       -0.2665
     14 N          62.8596   83.5604   12.8411 N.am    1  UNL1       -0.2790
     15 C          63.4618   82.8422   11.6699 C.2     1  UNL1        0.2678
     16 O          64.3630   83.5768   10.7222 O.2     1  UNL1       -0.2681
     17 H          62.2682   83.0783   13.4631 H       1  UNL1        0.1552
     18 C          63.1627   81.3894   11.4466 C.ar    1  UNL1        0.1419
     19 C          62.7498   80.4024   12.4980 C.ar    1  UNL1        0.0607
     20 S          62.5560   79.0715   11.8338 S.2     1  UNL1       -0.0638
     21 C          62.8491   79.2359   10.3719 C.ar    1  UNL1        0.1347
     22 N          63.2241   80.6684   10.1327 N.ar    1  UNL1       -0.2317
     23 C          66.2850   92.4020   14.6904 C.3     1  UNL1        0.1567
     24 C          65.7506   92.3920   16.0920 C.3     1  UNL1        0.0417
     25 O          67.3521   93.3716   15.1041 O.3     1  UNL1       -0.3756
     26 H          68.2103   92.9200   15.1212 H       1  UNL1        0.2112
     27 C          68.4224   92.4418    9.0842 C.3     1  UNL1        0.0310
     28 C          67.8880   92.4318   10.4857 C.ar    1  UNL1       -0.0219
     29 C          68.6314   91.7046   11.5667 C.ar    1  UNL1       -0.0045
     30 C          68.0971   91.6946   12.9682 C.ar    1  UNL1       -0.0019
     31 C          66.8193   92.4119   13.2888 C.ar    1  UNL1        0.0084
     32 C          66.0760   93.1391   12.2079 C.ar    1  UNL1       -0.0019
     33 C          66.6103   93.1491   10.8063 C.ar    1  UNL1       -0.0045
@<TRIPOS>BOND
     1    27    28    1
     2    28    29   ar
     3    29    30   ar
     4    30    31   ar
     5    31    23    1
     6    23    24    1
     7    23    25    1
     8    23     1    1
     9     1     2   ar
    10     2     3   ar
    11     3     7    1
    12     7     8   ar
    13     8     9   ar
    14     9    10   ar
    15    10    14    1
    16    14    15   am
    17    15    16    2
    18    15    18    1
    19    18    19   ar
    20    19    20   ar
    21    20    21   ar
    22    21    22   ar
    23    10    11   ar
    24    11    12   ar
    25    12    13    2
    26     3     4   ar
    27     4     5   ar
    28    31    32   ar
    29    32    33   ar
    30    33    28   ar
    31     5     1   ar
    32    12     7   ar
    33    22    18   ar
    34    25    26    1
    35    14    17    1
    36     5     6    1
@<TRIPOS>MOLECULE
*****
 33 36 0 0 0
SMALL
GASTEIGER

@<TRIPOS>ATOM
      1 C          44.9843   78.6573   20.8659 C.ar    1  UNL1        0.1471
      2 N          45.4235   77.6743   19.8215 N.ar    1  UNL1       -0.2109
      3 C          44.7640   76.3596   20.1157 C.ar    1  UNL1        0.1686
      4 C          43.9172   76.5300   21.3420 C.ar    1  UNL1        0.1113
      5 N          44.0533   77.9500   21.8057 N.ar    1  UNL1       -0.3363
      6 H          43.6096   78.3480   22.5892 H       1  UNL1        0.1673
      7 N          44.9233   75.0963   19.3228 N.ar    1  UNL1       -0.2565
      8 C          43.7805   74.5772   18.5014 C.ar    1  UNL1        0.0857
      9 C          43.9399   73.3139   17.7085 C.ar    1  UNL1        0.0340
     10 C          45.2419   72.5698   17.7369 C.ar    1  UNL1        0.0569
     11 C          46.3846   73.0889   18.5583 C.ar    1  UNL1        0.0758
     12 C          46.2254   74.3521   19.3512 C.ar    1  UNL1        0.2672
     13 O          47.3681   74.8712   20.1725 O.2     1  UNL1       -0.2665
     14 N          45.4011   71.3064   16.9440 N.am    1  UNL1       -0.2790
     15 C          45.7671   71.3741   15.4909 C.2     1  UNL1        0.2678
     16 O          45.9738   72.7051   14.8307 O.2     1  UNL1       -0.2681
     17 H          45.2655   70.4329   17.3773 H       1  UNL1        0.1552
     18 C          45.9264   70.1108   14.6980 C.ar    1  UNL1        0.1419
     19 C          45.4021   69.8664   13.3140 C.ar    1  UNL1        0.0607
     20 S          45.7896   68.4746   12.9106 S.2     1  UNL1       -0.0638
     21 C          46.5534   67.8588   14.0452 C.ar    1  UNL1        0.1347
     22 N          46.6379   68.8700   15.1499 N.ar    1  UNL1       -0.2317
     23 C          45.4026   80.0950   20.9550 C.3     1  UNL1        0.1567
     24 C          45.5812   79.9512   22.4374 C.3     1  UNL1        0.0417
     25 O          45.8210   81.5327   21.0441 O.3     1  UNL1       -0.3756
     26 H          46.7045   81.6369   20.6576 H       1  UNL1        0.2112
     27 C          44.6885   80.6702   15.0255 C.3     1  UNL1        0.0310
     28 C          44.8670   80.5264   16.5079 C.ar    1  UNL1       -0.0219
     29 C          46.2355   80.6347   17.1125 C.ar    1  UNL1       -0.0045
     30 C          46.4140   80.4909   18.5949 C.ar    1  UNL1       -0.0019
     31 C          45.2241   80.2388   19.4726 C.ar    1  UNL1        0.0084
     32 C          43.8557   80.1305   18.8680 C.ar    1  UNL1       -0.0019
     33 C          43.6771   80.2743   17.3857 C.ar    1  UNL1       -0.0045
@<TRIPOS>BOND
     1    27    28    1
     2    28    29   ar
     3    29    30   ar
     4    30    31   ar
     5    31    23    1
     6    23    24    1
     7    23    25    1
     8    23     1    1
     9     1     2   ar
    10     2     3   ar
    11     3     7    1
    12     7     8   ar
    13     8     9   ar
    14     9    10   ar
    15    10    14    1
    16    14    15   am
    17    15    16    2
    18    15    18    1
    19    18    19   ar
    20    19    20   ar
    21    20    21   ar
    22    21    22   ar
    23    10    11   ar
    24    11    12   ar
    25    12    13    2
    26     3     4   ar
    27     4     5   ar
    28    31    32   ar
    29    32    33   ar
    30    33    28   ar
    31     5     1   ar
    32    12     7   ar
    33    22    18   ar
    34    25    26    1
    35    14    17    1
    36     5     6    1
@<TRIPOS>MOLECULE
*****
 33 36 0 0 0
SMALL
GASTEIGER

@<TRIPOS>ATOM
      1 C          60.0910   88.8215    9.2416 C.ar    1  UNL1        0.1471
      2 N          60.2629   90.0106    8.3436 N.ar    1  UNL1       -0.2109
      3 C          59.6952   89.6625    6.9995 C.ar    1  UNL1        0.1686
      4 C          59.1723   88.2582    7.0668 C.ar    1  UNL1        0.1113
      5 N          59.4169   87.7385    8.4525 N.ar    1  UNL1       -0.3363
      6 H          59.1772   86.8436    8.7855 H       1  UNL1        0.1673
      7 N          59.6570   90.5610    5.7990 N.ar    1  UNL1       -0.2565
      8 C          60.9351   90.9808    5.1355 C.ar    1  UNL1        0.0857
      9 C          60.8969   91.8793    3.9349 C.ar    1  UNL1        0.0340
     10 C          59.5807   92.3579    3.3980 C.ar    1  UNL1        0.0569
     11 C          58.3026   91.9381    4.0615 C.ar    1  UNL1        0.0758
     12 C          58.3407   91.0397    5.2620 C.ar    1  UNL1        0.2672
     13 O          57.0627   90.6199    5.9255 O.2     1  UNL1       -0.2665
     14 N          59.5426   93.2564    2.1974 N.am    1  UNL1       -0.2790
     15 C          60.5340   93.0678    1.0876 C.2     1  UNL1        0.2678
     16 O          61.5636   91.9807    1.1784 O.2     1  UNL1       -0.2681
     17 H          58.8669   93.9699    2.1378 H       1  UNL1        0.1552
     18 C          60.4959   93.9663   -0.1129 C.ar    1  UNL1        0.1419
     19 C          59.4152   94.9533   -0.4415 C.ar    1  UNL1        0.0607
     20 S          59.7832   95.6325   -1.7273 S.2     1  UNL1       -0.0638
     21 C          61.0912   95.0653   -2.1934 C.ar    1  UNL1        0.1347
     22 N          61.5317   94.0355   -1.1956 N.ar    1  UNL1       -0.2317
     23 C          60.5181   88.7313   10.6766 C.3     1  UNL1        0.1567
     24 C          59.7387   89.9748   10.9868 C.3     1  UNL1        0.0417
     25 O          60.9452   88.6410   12.1117 O.3     1  UNL1       -0.3756
     26 H          60.4867   87.9010   12.5396 H       1  UNL1        0.2112
     27 C          63.6357   83.7572    9.4360 C.3     1  UNL1        0.0310
     28 C          62.8563   85.0007    9.7461 C.ar    1  UNL1       -0.0219
     29 C          62.8832   86.1597    8.7943 C.ar    1  UNL1       -0.0045
     30 C          62.1038   87.4032    9.1045 C.ar    1  UNL1       -0.0019
     31 C          61.2975   87.4878   10.3665 C.ar    1  UNL1        0.0084
     32 C          61.2706   86.3288   11.3183 C.ar    1  UNL1       -0.0019
     33 C          62.0500   85.0853   11.0082 C.ar    1  UNL1       -0.0045
@<TRIPOS>BOND
     1    27    28    1
     2    28    29   ar
     3    29    30   ar
     4    30    31   ar
     5    31    23    1
     6    23    24    1
     7    23    25    1
     8    23     1    1
     9     1     2   ar
    10     2     3   ar
    11     3     7    1
    12     7     8   ar
    13     8     9   ar
    14     9    10   ar
    15    10    14    1
    16    14    15   am
    17    15    16    2
    18    15    18    1
    19    18    19   ar
    20    19    20   ar
    21    20    21   ar
    22    21    22   ar
    23    10    11   ar
    24    11    12   ar
    25    12    13    2
    26     3     4   ar
    27     4     5   ar
    28    31    32   ar
    29    32    33   ar
    30    33    28   ar
    31     5     1   ar
    32    12     7   ar
    33    22    18   ar
    34    25    26    1
    35    14    17    1
    36     5     6    1
