@<TRIPOS>MOLECULE
*****
 43 48 0 0 0
SMALL
GASTEIGER

@<TRIPOS>ATOM
      1 N          59.1308   90.5753    5.7795 N.ar    1  UNL1       -0.2823
      2 C          57.7165   91.0371    5.5883 C.ar    1  UNL1        0.1831
      3 N          57.6939   91.9961    4.4351 N.ar    1  UNL1       -0.2236
      4 C          59.0942   92.1269    3.9135 C.ar    1  UNL1        0.0991
      5 C          59.6753   92.9322    2.7894 C.ar    1  UNL1        0.0207
      6 C          61.1445   92.8594    2.4961 C.ar    1  UNL1        0.0046
      7 C          62.0326   91.9813    3.3269 C.ar    1  UNL1        0.0017
      8 C          61.4515   91.1760    4.4511 C.ar    1  UNL1        0.0191
      9 C          59.9823   91.2489    4.7444 C.ar    1  UNL1        0.0835
     10 C          60.4790   88.6944    8.8955 C.ar    1  UNL1        0.1512
     11 C          60.1056   89.9657    8.1926 C.ar    1  UNL1        0.0619
     12 C          59.6096   89.6096    6.8226 C.ar    1  UNL1        0.0987
     13 S          59.6765   88.1180    6.6786 S.2     1  UNL1       -0.0618
     14 C          60.2138   87.5524    7.9598 C.ar    1  UNL1        0.1178
     15 C          60.4453   86.0997    8.2537 C.2     1  UNL1        0.2518
     16 N          61.0450   85.6860    9.5648 N.am    1  UNL1       -0.3248
     17 O          60.0770   85.0607    7.2363 O.2     1  UNL1       -0.2697
     18 H          61.2868   86.3679   10.2325 H       1  UNL1        0.1453
     19 H          61.1970   84.7326    9.7577 H       1  UNL1        0.1453
     20 O          61.0222   88.5843   10.2893 O.3     1  UNL1       -0.4740
     21 C          59.8480   90.2748   11.8746 C.3     1  UNL1        0.0523
     22 C          61.0826   89.7979   11.1688 C.3     1  UNL1        0.1891
     23 C          62.3776   90.5346   11.3424 C.ar    1  UNL1        0.0278
     24 C          62.9785   91.2779   10.1864 C.ar    1  UNL1        0.0000
     25 C          64.2735   92.0146   10.3600 C.ar    1  UNL1       -0.0002
     26 C          64.9677   92.0080   11.6897 C.ar    1  UNL1        0.0008
     27 C          64.3669   91.2647   12.8457 C.ar    1  UNL1        0.0112
     28 C          63.0718   90.5279   12.6721 C.ar    1  UNL1        0.0570
     29 CL         62.4710   89.7846   13.8281 Cl      1  UNL1       -0.0825
     30 C          61.7258   93.6647    1.3718 C.ar    1  UNL1        0.0397
     31 C          60.9668   94.5840    0.4615 C.ar    1  UNL1        0.1216
     32 N          61.9400   95.1795   -0.5123 N.ar    1  UNL1       -0.1676
     33 N          63.3005   94.6281   -0.2039 N.ar    1  UNL1       -0.2480
     34 C          63.1681   93.6919    0.9606 C.ar    1  UNL1        0.0967
     35 C          64.5703   94.9555   -0.9320 C.3     1  UNL1        0.1448
     36 C          64.5153   95.6469   -2.2620 C.3     1  UNL1        0.0988
     37 N          64.5648   94.8434   -3.5276 N.3     1  UNL1       -0.2686
     38 C          64.1182   93.4115   -3.5248 C.3     1  UNL1        0.0897
     39 C          64.1677   92.6079   -4.7905 C.3     1  UNL1        0.0897
     40 N          64.6639   93.2364   -6.0589 N.3     1  UNL1       -0.2691
     41 C          64.7134   92.4328   -7.3246 C.3     1  UNL1        0.0897
     42 C          65.1105   94.6683   -6.0617 C.3     1  UNL1        0.0897
     43 C          65.0610   95.4718   -4.7961 C.3     1  UNL1        0.0897
@<TRIPOS>BOND
     1    22    21    1
     2    22    20    1
     3    20    10    1
     4    10    11   ar
     5    11    12   ar
     6    12     1    1
     7     1     2   ar
     8     2     3   ar
     9     3     4   ar
    10     4     5   ar
    11     5     6   ar
    12     6    30    1
    13    30    31   ar
    14    31    32   ar
    15    32    33   ar
    16    33    35    1
    17    35    36    1
    18    36    37    1
    19    37    38    1
    20    38    39    1
    21    39    40    1
    22    40    41    1
    23    40    42    1
    24    42    43    1
    25    33    34   ar
    26     6     7   ar
    27     7     8   ar
    28     8     9   ar
    29    12    13   ar
    30    13    14   ar
    31    14    15    1
    32    15    16   am
    33    15    17    2
    34    22    23    1
    35    23    24   ar
    36    24    25   ar
    37    25    26   ar
    38    26    27   ar
    39    27    28   ar
    40    28    29    1
    41    14    10   ar
    42    28    23   ar
    43     9     1   ar
    44     9     4   ar
    45    34    30   ar
    46    43    37    1
    47    16    18    1
    48    16    19    1
@<TRIPOS>MOLECULE
*****
 43 48 0 0 0
SMALL
GASTEIGER

@<TRIPOS>ATOM
      1 N          59.1526   90.5705    5.7893 N.ar    1  UNL1       -0.2823
      2 C          57.7404   91.0406    5.6029 C.ar    1  UNL1        0.1831
      3 N          57.7189   91.9967    4.4473 N.ar    1  UNL1       -0.2236
      4 C          59.1178   92.1176    3.9196 C.ar    1  UNL1        0.0991
      5 C          59.6992   92.9164    2.7909 C.ar    1  UNL1        0.0207
      6 C          61.1667   92.8337    2.4917 C.ar    1  UNL1        0.0046
      7 C          62.0528   91.9523    3.3211 C.ar    1  UNL1        0.0017
      8 C          61.4713   91.1535    4.4498 C.ar    1  UNL1        0.0191
      9 C          60.0038   91.2362    4.7490 C.ar    1  UNL1        0.0835
     10 C          60.4937   88.6885    8.9078 C.ar    1  UNL1        0.1512
     11 C          60.1200   89.9600    8.2051 C.ar    1  UNL1        0.0619
     12 C          59.6298   89.6045    6.8329 C.ar    1  UNL1        0.0987
     13 S          59.7004   88.1132    6.6873 S.2     1  UNL1       -0.0618
     14 C          60.2344   87.5471    7.9697 C.ar    1  UNL1        0.1178
     15 C          60.4680   86.0946    8.2625 C.2     1  UNL1        0.2518
     16 N          61.0340   85.6782    9.5877 N.am    1  UNL1       -0.3248
     17 O          60.1357   85.0584    7.2300 O.2     1  UNL1       -0.2697
     18 H          61.2521   86.3583   10.2654 H       1  UNL1        0.1453
     19 H          61.1873   84.7249    9.7799 H       1  UNL1        0.1453
     20 O          61.0322   88.5778   10.3034 O.3     1  UNL1       -0.4740
     21 C          59.8580   90.2704   11.8865 C.3     1  UNL1        0.0523
     22 C          61.0929   89.7918   11.1823 C.3     1  UNL1        0.1891
     23 C          62.3886   90.5271   11.3571 C.ar    1  UNL1        0.0278
     24 C          62.9909   91.2704   10.2018 C.ar    1  UNL1        0.0000
     25 C          64.2865   92.0057   10.3766 C.ar    1  UNL1       -0.0002
     26 C          64.9799   91.9977   11.7067 C.ar    1  UNL1        0.0008
     27 C          64.3777   91.2544   12.8619 C.ar    1  UNL1        0.0112
     28 C          63.0820   90.5190   12.6872 C.ar    1  UNL1        0.0570
     29 CL         62.4798   89.7757   13.8424 Cl      1  UNL1       -0.0825
     30 C          61.7481   93.6326    1.3630 C.ar    1  UNL1        0.0397
     31 C          63.1512   93.5313    0.8424 C.ar    1  UNL1        0.1216
     32 N          63.2988   94.5090   -0.2855 N.ar    1  UNL1       -0.1676
     33 N          61.9869   95.2146   -0.4620 N.ar    1  UNL1       -0.2480
     34 C          61.0286   94.6729    0.5569 C.ar    1  UNL1        0.0967
     35 C          61.6862   96.2755   -1.4788 C.3     1  UNL1        0.1448
     36 C          60.8932   95.9352   -2.7057 C.3     1  UNL1        0.0988
     37 N          59.6726   95.0706   -2.5939 N.3     1  UNL1       -0.2686
     38 C          58.3865   95.6509   -2.0848 C.3     1  UNL1        0.0897
     39 C          57.1659   94.7863   -1.9729 C.3     1  UNL1        0.0897
     40 N          57.2314   93.3413   -2.3702 N.3     1  UNL1       -0.2691
     41 C          56.0108   92.4766   -2.2583 C.3     1  UNL1        0.0897
     42 C          58.5175   92.7610   -2.8793 C.3     1  UNL1        0.0897
     43 C          59.7381   93.6256   -2.9911 C.3     1  UNL1        0.0897
@<TRIPOS>BOND
     1    22    21    1
     2    22    20    1
     3    20    10    1
     4    10    11   ar
     5    11    12   ar
     6    12     1    1
     7     1     2   ar
     8     2     3   ar
     9     3     4   ar
    10     4     5   ar
    11     5     6   ar
    12     6    30    1
    13    30    31   ar
    14    31    32   ar
    15    32    33   ar
    16    33    35    1
    17    35    36    1
    18    36    37    1
    19    37    38    1
    20    38    39    1
    21    39    40    1
    22    40    41    1
    23    40    42    1
    24    42    43    1
    25    33    34   ar
    26     6     7   ar
    27     7     8   ar
    28     8     9   ar
    29    12    13   ar
    30    13    14   ar
    31    14    15    1
    32    15    16   am
    33    15    17    2
    34    22    23    1
    35    23    24   ar
    36    24    25   ar
    37    25    26   ar
    38    26    27   ar
    39    27    28   ar
    40    28    29    1
    41    14    10   ar
    42    28    23   ar
    43     9     1   ar
    44     9     4   ar
    45    34    30   ar
    46    43    37    1
    47    16    18    1
    48    16    19    1
@<TRIPOS>MOLECULE
*****
 43 48 0 0 0
SMALL
GASTEIGER

@<TRIPOS>ATOM
      1 N          61.8690   86.1248   10.2274 N.ar    1  UNL1       -0.2823
      2 C          61.6421   84.8555    9.4610 C.ar    1  UNL1        0.1831
      3 N          60.9179   85.2023    8.1940 N.ar    1  UNL1       -0.2236
      4 C          60.6973   86.6859    8.1773 C.ar    1  UNL1        0.0991
      5 C          60.0372   87.5913    7.1801 C.ar    1  UNL1        0.0207
      6 C          59.9648   89.0669    7.4397 C.ar    1  UNL1        0.0046
      7 C          60.5527   89.6370    8.6965 C.ar    1  UNL1        0.0017
      8 C          61.2128   88.7316    9.6936 C.ar    1  UNL1        0.0191
      9 C          61.2851   87.2561    9.4340 C.ar    1  UNL1        0.0835
     10 C          63.7263   87.1557   13.4760 C.ar    1  UNL1        0.1512
     11 C          63.1359   87.4968   12.1399 C.ar    1  UNL1        0.0619
     12 C          62.5587   86.2423   11.5542 C.ar    1  UNL1        0.0987
     13 S          62.7924   85.1258   12.5283 S.2     1  UNL1       -0.0618
     14 C          63.5139   85.6903   13.7160 C.ar    1  UNL1        0.1178
     15 C          63.9472   84.9240   14.9306 C.2     1  UNL1        0.2518
     16 N          64.2631   85.6519   16.2035 N.am    1  UNL1       -0.3248
     17 O          64.0644   83.4297   14.8722 O.2     1  UNL1       -0.2697
     18 H          64.1861   86.6326   16.2419 H       1  UNL1        0.1453
     19 H          64.5474   85.1489   17.0007 H       1  UNL1        0.1453
     20 O          64.4090   88.1120   14.4083 O.3     1  UNL1       -0.4740
     21 C          63.0973   89.9862   15.6399 C.3     1  UNL1        0.0523
     22 C          63.9491   89.5374   14.4897 C.3     1  UNL1        0.1891
     23 C          64.3410   90.5141   13.4208 C.ar    1  UNL1        0.0278
     24 C          63.5298   90.6151   12.1631 C.ar    1  UNL1        0.0000
     25 C          63.9217   91.5917   11.0942 C.ar    1  UNL1       -0.0002
     26 C          65.1248   92.4675   11.2831 C.ar    1  UNL1        0.0008
     27 C          65.9359   92.3666   12.5407 C.ar    1  UNL1        0.0112
     28 C          65.5440   91.3899   13.6097 C.ar    1  UNL1        0.0570
     29 CL         66.3552   91.2890   14.8673 Cl      1  UNL1       -0.0825
     30 C          59.3047   89.9724    6.4425 C.ar    1  UNL1        0.0397
     31 C          57.8275   90.1748    6.2779 C.ar    1  UNL1        0.1216
     32 N          57.6157   91.1619    5.1685 N.ar    1  UNL1       -0.1676
     33 N          58.9620   91.5696    4.6475 N.ar    1  UNL1       -0.2480
     34 C          60.0058   90.8344    5.4349 C.ar    1  UNL1        0.0967
     35 C          59.2192   92.5418    3.5345 C.3     1  UNL1        0.1448
     36 C          60.6108   92.7248    3.0053 C.3     1  UNL1        0.0988
     37 N          60.8295   92.9819    1.5438 N.3     1  UNL1       -0.2686
     38 C          59.7199   92.7361    0.5648 C.3     1  UNL1        0.0897
     39 C          59.9386   92.9932   -0.8968 C.3     1  UNL1        0.0897
     40 N          61.2669   93.4962   -1.3792 N.3     1  UNL1       -0.2691
     41 C          61.4856   93.7533   -2.8409 C.3     1  UNL1        0.0897
     42 C          62.3764   93.7421   -0.4002 C.3     1  UNL1        0.0897
     43 C          62.1577   93.4849    1.0613 C.3     1  UNL1        0.0897
@<TRIPOS>BOND
     1    22    21    1
     2    22    20    1
     3    20    10    1
     4    10    11   ar
     5    11    12   ar
     6    12     1    1
     7     1     2   ar
     8     2     3   ar
     9     3     4   ar
    10     4     5   ar
    11     5     6   ar
    12     6    30    1
    13    30    31   ar
    14    31    32   ar
    15    32    33   ar
    16    33    35    1
    17    35    36    1
    18    36    37    1
    19    37    38    1
    20    38    39    1
    21    39    40    1
    22    40    41    1
    23    40    42    1
    24    42    43    1
    25    33    34   ar
    26     6     7   ar
    27     7     8   ar
    28     8     9   ar
    29    12    13   ar
    30    13    14   ar
    31    14    15    1
    32    15    16   am
    33    15    17    2
    34    22    23    1
    35    23    24   ar
    36    24    25   ar
    37    25    26   ar
    38    26    27   ar
    39    27    28   ar
    40    28    29    1
    41    14    10   ar
    42    28    23   ar
    43     9     1   ar
    44     9     4   ar
    45    34    30   ar
    46    43    37    1
    47    16    18    1
    48    16    19    1
@<TRIPOS>MOLECULE
*****
 43 48 0 0 0
SMALL
GASTEIGER

@<TRIPOS>ATOM
      1 N          64.5081   90.1015   13.4041 N.ar    1  UNL1       -0.2823
      2 C          64.4009   88.8133   14.1651 C.ar    1  UNL1        0.1831
      3 N          63.4141   87.9356   13.4538 N.ar    1  UNL1       -0.2236
      4 C          62.9115   88.6812   12.2533 C.ar    1  UNL1        0.0991
      5 C          61.9255   88.3142   11.1841 C.ar    1  UNL1        0.0207
      6 C          61.6156   89.2859   10.0843 C.ar    1  UNL1        0.0046
      7 C          62.2917   90.6245   10.0535 C.ar    1  UNL1        0.0017
      8 C          63.2777   90.9915   11.1227 C.ar    1  UNL1        0.0191
      9 C          63.5876   90.0199   12.2225 C.ar    1  UNL1        0.0835
     10 C          66.3956   93.4721   13.7809 C.ar    1  UNL1        0.1512
     11 C          65.3590   92.6186   13.1123 C.ar    1  UNL1        0.0619
     12 C          65.3822   91.2667   13.7618 C.ar    1  UNL1        0.0987
     13 S          66.4332   91.2847   14.8319 S.2     1  UNL1       -0.0618
     14 C          67.0595   92.6476   14.8437 C.ar    1  UNL1        0.1178
     15 C          68.1571   93.1057   15.7579 C.2     1  UNL1        0.2518
     16 N          68.4182   94.5715   15.9406 N.am    1  UNL1       -0.3248
     17 O          68.9934   92.0980   16.4894 O.2     1  UNL1       -0.2697
     18 H          67.8692   95.2329   15.4605 H       1  UNL1        0.1453
     19 H          69.1385   94.8721   16.5405 H       1  UNL1        0.1453
     20 O          66.7125   94.8993   13.4457 O.3     1  UNL1       -0.4740
     21 C          65.7912   96.6816   11.7951 C.3     1  UNL1        0.0523
     22 C          66.5283   95.3991   12.0435 C.3     1  UNL1        0.1891
     23 C          67.0814   94.6163   10.8896 C.ar    1  UNL1        0.0278
     24 C          67.2908   93.1366   11.0188 C.ar    1  UNL1        0.0000
     25 C          67.8438   92.3538    9.8649 C.ar    1  UNL1       -0.0002
     26 C          68.1874   93.0508    8.5819 C.ar    1  UNL1        0.0008
     27 C          67.9780   94.5304    8.4527 C.ar    1  UNL1        0.0112
     28 C          67.4250   95.3132    9.6066 C.ar    1  UNL1        0.0570
     29 CL         67.2156   96.7928    9.4774 Cl      1  UNL1       -0.0825
     30 C          60.6296   88.9189    9.0150 C.ar    1  UNL1        0.0397
     31 C          59.9609   87.5862    8.8522 C.ar    1  UNL1        0.1216
     32 N          59.0572   87.6639    7.6575 N.ar    1  UNL1       -0.1676
     33 N          59.1674   89.0447    7.0819 N.ar    1  UNL1       -0.2480
     34 C          60.1392   89.8204    7.9210 C.ar    1  UNL1        0.0967
     35 C          58.4345   89.5595    5.8786 C.3     1  UNL1        0.1448
     36 C          58.4808   91.0201    5.5404 C.3     1  UNL1        0.0988
     37 N          59.5160   91.5364    4.5855 N.3     1  UNL1       -0.2686
     38 C          60.9308   91.0463    4.6762 C.3     1  UNL1        0.0897
     39 C          61.9660   91.5625    3.7212 C.3     1  UNL1        0.0897
     40 N          61.5863   92.5688    2.6756 N.3     1  UNL1       -0.2691
     41 C          62.6216   93.0850    1.7206 C.3     1  UNL1        0.0897
     42 C          60.1715   93.0588    2.5849 C.3     1  UNL1        0.0897
     43 C          59.1364   92.5426    3.5398 C.3     1  UNL1        0.0897
@<TRIPOS>BOND
     1    22    21    1
     2    22    20    1
     3    20    10    1
     4    10    11   ar
     5    11    12   ar
     6    12     1    1
     7     1     2   ar
     8     2     3   ar
     9     3     4   ar
    10     4     5   ar
    11     5     6   ar
    12     6    30    1
    13    30    31   ar
    14    31    32   ar
    15    32    33   ar
    16    33    35    1
    17    35    36    1
    18    36    37    1
    19    37    38    1
    20    38    39    1
    21    39    40    1
    22    40    41    1
    23    40    42    1
    24    42    43    1
    25    33    34   ar
    26     6     7   ar
    27     7     8   ar
    28     8     9   ar
    29    12    13   ar
    30    13    14   ar
    31    14    15    1
    32    15    16   am
    33    15    17    2
    34    22    23    1
    35    23    24   ar
    36    24    25   ar
    37    25    26   ar
    38    26    27   ar
    39    27    28   ar
    40    28    29    1
    41    14    10   ar
    42    28    23   ar
    43     9     1   ar
    44     9     4   ar
    45    34    30   ar
    46    43    37    1
    47    16    18    1
    48    16    19    1
@<TRIPOS>MOLECULE
*****
 43 48 0 0 0
SMALL
GASTEIGER

@<TRIPOS>ATOM
      1 N          58.9929   90.1466    6.3215 N.ar    1  UNL1       -0.2823
      2 C          57.5348   90.3977    6.0745 C.ar    1  UNL1        0.1831
      3 N          57.4142   91.2754    4.8641 N.ar    1  UNL1       -0.2236
      4 C          58.7976   91.5667    4.3630 C.ar    1  UNL1        0.0991
      5 C          59.2950   92.3771    3.2028 C.ar    1  UNL1        0.0207
      6 C          60.7680   92.4898    2.9434 C.ar    1  UNL1        0.0046
      7 C          61.7438   91.7922    3.8442 C.ar    1  UNL1        0.0017
      8 C          61.2464   90.9818    5.0043 C.ar    1  UNL1        0.0191
      9 C          59.7734   90.8691    5.2637 C.ar    1  UNL1        0.0835
     10 C          60.3375   87.4223    8.7372 C.ar    1  UNL1        0.1512
     11 C          59.7157   87.8257    7.4331 C.ar    1  UNL1        0.0619
     12 C          59.5693   89.3185    7.4314 C.ar    1  UNL1        0.0987
     13 S          60.1006   89.8378    8.7345 S.2     1  UNL1       -0.0618
     14 C          60.5754   88.6659    9.5415 C.ar    1  UNL1        0.1178
     15 C          61.1816   88.7269   10.9123 C.2     1  UNL1        0.2518
     16 N          62.6637   88.8954   11.0701 N.am    1  UNL1       -0.3248
     17 O          60.3056   88.6195   12.1252 O.2     1  UNL1       -0.2697
     18 H          63.2386   88.9659   10.2740 H       1  UNL1        0.1453
     19 H          63.0615   88.9354   11.9697 H       1  UNL1        0.1453
     20 O          60.6640   86.0214    9.1623 O.3     1  UNL1       -0.4740
     21 C          63.0711   85.7895    8.2127 C.3     1  UNL1        0.0523
     22 C          62.0944   85.6044    9.3359 C.3     1  UNL1        0.1891
     23 C          62.5480   85.0024   10.6327 C.ar    1  UNL1        0.0278
     24 C          62.0525   85.5619   11.9333 C.ar    1  UNL1        0.0000
     25 C          62.5061   84.9598   13.2301 C.ar    1  UNL1       -0.0002
     26 C          63.4552   83.7983   13.2264 C.ar    1  UNL1        0.0008
     27 C          63.9506   83.2388   11.9259 C.ar    1  UNL1        0.0112
     28 C          63.4970   83.8408   10.6290 C.ar    1  UNL1        0.0570
     29 CL         63.9925   83.2813    9.3285 Cl      1  UNL1       -0.0825
     30 C          61.2654   93.3002    1.7833 C.ar    1  UNL1        0.0397
     31 C          62.5244   93.0489    1.0074 C.ar    1  UNL1        0.1216
     32 N          62.6282   94.0975   -0.0600 N.ar    1  UNL1       -0.1676
     33 N          61.4334   94.9971    0.0561 N.ar    1  UNL1       -0.2480
     34 C          60.5912   94.5043    1.1953 C.ar    1  UNL1        0.0967
     35 C          61.1335   96.1814   -0.8142 C.3     1  UNL1        0.1448
     36 C          60.3034   96.0114   -2.0520 C.3     1  UNL1        0.0988
     37 N          59.2364   94.9584   -2.1007 N.3     1  UNL1       -0.2686
     38 C          57.9545   95.1542   -1.3467 C.3     1  UNL1        0.0897
     39 C          56.8874   94.1011   -1.3953 C.3     1  UNL1        0.0897
     40 N          57.1022   92.8523   -2.1980 N.3     1  UNL1       -0.2691
     41 C          56.0350   91.7992   -2.2467 C.3     1  UNL1        0.0897
     42 C          58.3840   92.6565   -2.9520 C.3     1  UNL1        0.0897
     43 C          59.4511   93.7095   -2.9034 C.3     1  UNL1        0.0897
@<TRIPOS>BOND
     1    22    21    1
     2    22    20    1
     3    20    10    1
     4    10    11   ar
     5    11    12   ar
     6    12     1    1
     7     1     2   ar
     8     2     3   ar
     9     3     4   ar
    10     4     5   ar
    11     5     6   ar
    12     6    30    1
    13    30    31   ar
    14    31    32   ar
    15    32    33   ar
    16    33    35    1
    17    35    36    1
    18    36    37    1
    19    37    38    1
    20    38    39    1
    21    39    40    1
    22    40    41    1
    23    40    42    1
    24    42    43    1
    25    33    34   ar
    26     6     7   ar
    27     7     8   ar
    28     8     9   ar
    29    12    13   ar
    30    13    14   ar
    31    14    15    1
    32    15    16   am
    33    15    17    2
    34    22    23    1
    35    23    24   ar
    36    24    25   ar
    37    25    26   ar
    38    26    27   ar
    39    27    28   ar
    40    28    29    1
    41    14    10   ar
    42    28    23   ar
    43     9     1   ar
    44     9     4   ar
    45    34    30   ar
    46    43    37    1
    47    16    18    1
    48    16    19    1
@<TRIPOS>MOLECULE
*****
 43 48 0 0 0
SMALL
GASTEIGER

@<TRIPOS>ATOM
      1 N          59.1506   90.2216    6.2778 N.ar    1  UNL1       -0.2823
      2 C          57.7128   90.5666    6.0254 C.ar    1  UNL1        0.1831
      3 N          57.6520   91.4339    4.8030 N.ar    1  UNL1       -0.2236
      4 C          59.0522   91.6248    4.3000 C.ar    1  UNL1        0.0991
      5 C          59.6035   92.3841    3.1297 C.ar    1  UNL1        0.0207
      6 C          61.0809   92.3942    2.8709 C.ar    1  UNL1        0.0046
      7 C          62.0071   91.6449    3.7824 C.ar    1  UNL1        0.0017
      8 C          61.4558   90.8856    4.9527 C.ar    1  UNL1        0.0191
      9 C          59.9784   90.8756    5.2114 C.ar    1  UNL1        0.0835
     10 C          60.3586   87.4490    8.7108 C.ar    1  UNL1        0.1512
     11 C          59.7974   87.8773    7.3872 C.ar    1  UNL1        0.0619
     12 C          59.6695   89.3717    7.3996 C.ar    1  UNL1        0.0987
     13 S          60.1517   89.8672    8.7308 S.2     1  UNL1       -0.0618
     14 C          60.5776   88.6789    9.5411 C.ar    1  UNL1        0.1178
     15 C          61.1261   88.7143   10.9368 C.2     1  UNL1        0.2518
     16 N          62.5988   88.8919   11.1596 N.am    1  UNL1       -0.3248
     17 O          60.2019   88.5721   12.1097 O.2     1  UNL1       -0.2697
     18 H          63.2054   88.9853   10.3898 H       1  UNL1        0.1453
     19 H          62.9588   88.9152   12.0756 H       1  UNL1        0.1453
     20 O          60.6497   86.0387    9.1302 O.3     1  UNL1       -0.4740
     21 C          63.0329   85.7101    8.1492 C.3     1  UNL1        0.0523
     22 C          62.0694   85.5821    9.2917 C.3     1  UNL1        0.1891
     23 C          62.5254   84.9974   10.5956 C.ar    1  UNL1        0.0278
     24 C          62.0289   85.5714   11.8894 C.ar    1  UNL1        0.0000
     25 C          62.4850   84.9867   13.1933 C.ar    1  UNL1       -0.0002
     26 C          63.4376   83.8281   13.2034 C.ar    1  UNL1        0.0008
     27 C          63.9341   83.2541   11.9096 C.ar    1  UNL1        0.0112
     28 C          63.4780   83.8388   10.6056 C.ar    1  UNL1        0.0570
     29 CL         63.9745   83.2648    9.3119 Cl      1  UNL1       -0.0825
     30 C          61.6322   93.1535    1.7007 C.ar    1  UNL1        0.0397
     31 C          60.8285   93.8048    0.6145 C.ar    1  UNL1        0.1216
     32 N          61.7836   94.4486   -0.3464 N.ar    1  UNL1       -0.1676
     33 N          63.1777   94.1953    0.1460 N.ar    1  UNL1       -0.2480
     34 C          63.0841   93.3948    1.4111 C.ar    1  UNL1        0.0967
     35 C          64.4432   94.6606   -0.5113 C.3     1  UNL1        0.1448
     36 C          64.3798   95.4576   -1.7805 C.3     1  UNL1        0.0988
     37 N          64.3739   94.7568   -3.1066 N.3     1  UNL1       -0.2686
     38 C          64.8474   95.4739   -4.3360 C.3     1  UNL1        0.0897
     39 C          64.8415   94.7731   -5.6623 C.3     1  UNL1        0.0897
     40 N          64.3620   93.3550   -5.7590 N.3     1  UNL1       -0.2691
     41 C          64.3561   92.6542   -7.0852 C.3     1  UNL1        0.0897
     42 C          63.8885   92.6379   -4.5296 C.3     1  UNL1        0.0897
     43 C          63.8944   93.3387   -3.2034 C.3     1  UNL1        0.0897
@<TRIPOS>BOND
     1    22    21    1
     2    22    20    1
     3    20    10    1
     4    10    11   ar
     5    11    12   ar
     6    12     1    1
     7     1     2   ar
     8     2     3   ar
     9     3     4   ar
    10     4     5   ar
    11     5     6   ar
    12     6    30    1
    13    30    31   ar
    14    31    32   ar
    15    32    33   ar
    16    33    35    1
    17    35    36    1
    18    36    37    1
    19    37    38    1
    20    38    39    1
    21    39    40    1
    22    40    41    1
    23    40    42    1
    24    42    43    1
    25    33    34   ar
    26     6     7   ar
    27     7     8   ar
    28     8     9   ar
    29    12    13   ar
    30    13    14   ar
    31    14    15    1
    32    15    16   am
    33    15    17    2
    34    22    23    1
    35    23    24   ar
    36    24    25   ar
    37    25    26   ar
    38    26    27   ar
    39    27    28   ar
    40    28    29    1
    41    14    10   ar
    42    28    23   ar
    43     9     1   ar
    44     9     4   ar
    45    34    30   ar
    46    43    37    1
    47    16    18    1
    48    16    19    1
@<TRIPOS>MOLECULE
*****
 43 48 0 0 0
SMALL
GASTEIGER

@<TRIPOS>ATOM
      1 N          61.2283   86.7381    9.7313 N.ar    1  UNL1       -0.2823
      2 C          60.7115   85.4738    9.1112 C.ar    1  UNL1        0.1831
      3 N          59.9771   85.8400    7.8556 N.ar    1  UNL1       -0.2236
      4 C          60.0400   87.3306    7.6997 C.ar    1  UNL1        0.0991
      5 C          59.4930   88.2542    6.6520 C.ar    1  UNL1        0.0207
      6 C          59.7193   89.7328    6.7636 C.ar    1  UNL1        0.0046
      7 C          60.4926   90.2878    7.9229 C.ar    1  UNL1        0.0017
      8 C          61.0396   89.3642    8.9706 C.ar    1  UNL1        0.0191
      9 C          60.8133   87.8856    8.8590 C.ar    1  UNL1        0.0835
     10 C          63.2422   86.2424   13.0122 C.ar    1  UNL1        0.1512
     11 C          62.4893   85.6859   11.8403 C.ar    1  UNL1        0.0619
     12 C          62.0209   86.8374   11.0009 C.ar    1  UNL1        0.0987
     13 S          62.4844   88.1057   11.6540 S.2     1  UNL1       -0.0618
     14 C          63.2392   87.7380   12.8970 C.ar    1  UNL1        0.1178
     15 C          63.8788   88.6975   13.8564 C.2     1  UNL1        0.2518
     16 N          63.9694   88.3527   15.3134 N.am    1  UNL1       -0.3248
     17 O          64.4277   90.0018   13.3588 O.2     1  UNL1       -0.2697
     18 H          63.6092   87.4967   15.6400 H       1  UNL1        0.1453
     19 H          64.3892   88.9824   15.9431 H       1  UNL1        0.1453
     20 O          63.8852   85.4437   14.1069 O.3     1  UNL1       -0.4740
     21 C          62.5274   84.7024   16.1942 C.3     1  UNL1        0.0523
     22 C          63.0936   84.4005   14.8384 C.3     1  UNL1        0.1891
     23 C          62.8683   83.0554   14.2140 C.ar    1  UNL1        0.0278
     24 C          61.6692   82.2408   14.5997 C.ar    1  UNL1        0.0000
     25 C          61.4439   80.8957   13.9753 C.ar    1  UNL1       -0.0002
     26 C          62.4177   80.3651   12.9653 C.ar    1  UNL1        0.0008
     27 C          63.6168   81.1795   12.5797 C.ar    1  UNL1        0.0112
     28 C          63.8421   82.5247   13.2040 C.ar    1  UNL1        0.0570
     29 CL         65.0412   83.3392   12.8184 Cl      1  UNL1       -0.0825
     30 C          59.1724   90.6564    5.7158 C.ar    1  UNL1        0.0397
     31 C          57.7218   90.9440    5.4642 C.ar    1  UNL1        0.1216
     32 N          57.6329   91.9199    4.3286 N.ar    1  UNL1       -0.1676
     33 N          59.0285   92.2356    3.8783 N.ar    1  UNL1       -0.2480
     34 C          59.9799   91.4547    4.7357 C.ar    1  UNL1        0.0967
     35 C          59.4064   93.1683    2.7661 C.3     1  UNL1        0.1448
     36 C          60.1495   92.6486    1.5712 C.3     1  UNL1        0.0988
     37 N          61.3825   93.3541    1.0897 N.3     1  UNL1       -0.2686
     38 C          62.7377   92.7866    1.3923 C.3     1  UNL1        0.0897
     39 C          63.9708   93.4921    0.9108 C.3     1  UNL1        0.0897
     40 N          63.8486   94.7650    0.1268 N.3     1  UNL1       -0.2691
     41 C          65.0818   95.4705   -0.3547 C.3     1  UNL1        0.0897
     42 C          62.4935   95.3325   -0.1758 C.3     1  UNL1        0.0897
     43 C          61.2605   94.6270    0.3057 C.3     1  UNL1        0.0897
@<TRIPOS>BOND
     1    22    21    1
     2    22    20    1
     3    20    10    1
     4    10    11   ar
     5    11    12   ar
     6    12     1    1
     7     1     2   ar
     8     2     3   ar
     9     3     4   ar
    10     4     5   ar
    11     5     6   ar
    12     6    30    1
    13    30    31   ar
    14    31    32   ar
    15    32    33   ar
    16    33    35    1
    17    35    36    1
    18    36    37    1
    19    37    38    1
    20    38    39    1
    21    39    40    1
    22    40    41    1
    23    40    42    1
    24    42    43    1
    25    33    34   ar
    26     6     7   ar
    27     7     8   ar
    28     8     9   ar
    29    12    13   ar
    30    13    14   ar
    31    14    15    1
    32    15    16   am
    33    15    17    2
    34    22    23    1
    35    23    24   ar
    36    24    25   ar
    37    25    26   ar
    38    26    27   ar
    39    27    28   ar
    40    28    29    1
    41    14    10   ar
    42    28    23   ar
    43     9     1   ar
    44     9     4   ar
    45    34    30   ar
    46    43    37    1
    47    16    18    1
    48    16    19    1
@<TRIPOS>MOLECULE
*****
 43 48 0 0 0
SMALL
GASTEIGER

@<TRIPOS>ATOM
      1 N          58.9591   90.0192    6.5126 N.ar    1  UNL1       -0.2823
      2 C          57.4832   90.1767    6.2966 C.ar    1  UNL1        0.1831
      3 N          57.2813   91.0353    5.0833 N.ar    1  UNL1       -0.2236
      4 C          58.6325   91.4084    4.5494 C.ar    1  UNL1        0.0991
      5 C          59.0526   92.2389    3.3731 C.ar    1  UNL1        0.0207
      6 C          60.5097   92.4413    3.0801 C.ar    1  UNL1        0.0046
      7 C          61.5467   91.8134    3.9635 C.ar    1  UNL1        0.0017
      8 C          61.1266   90.9829    5.1398 C.ar    1  UNL1        0.0191
      9 C          59.6695   90.7805    5.4328 C.ar    1  UNL1        0.0835
     10 C          60.4880   87.3990    8.9339 C.ar    1  UNL1        0.1512
     11 C          59.7914   87.7492    7.6525 C.ar    1  UNL1        0.0619
     12 C          59.6105   89.2377    7.6149 C.ar    1  UNL1        0.0987
     13 S          60.1953   89.8076    8.8731 S.2     1  UNL1       -0.0618
     14 C          60.7376   88.6713    9.6883 C.ar    1  UNL1        0.1178
     15 C          61.4113   88.7868   11.0236 C.2     1  UNL1        0.2518
     16 N          62.8942   88.5904   11.1350 N.am    1  UNL1       -0.3248
     17 O          60.6021   89.0989   12.2474 O.2     1  UNL1       -0.2697
     18 H          63.4253   88.3856   10.3317 H       1  UNL1        0.1453
     19 H          63.3364   88.6663   12.0113 H       1  UNL1        0.1453
     20 O          60.8682   86.0190    9.3822 O.3     1  UNL1       -0.4740
     21 C          63.1352   86.0575    8.1137 C.3     1  UNL1        0.0523
     22 C          62.2850   85.5478    9.2395 C.3     1  UNL1        0.1891
     23 C          62.8518   84.5668   10.2226 C.ar    1  UNL1        0.0278
     24 C          63.7424   83.4577    9.7468 C.ar    1  UNL1        0.0000
     25 C          64.3092   82.4767   10.7299 C.ar    1  UNL1       -0.0002
     26 C          63.9852   82.6049   12.1888 C.ar    1  UNL1        0.0008
     27 C          63.0946   83.7140   12.6647 C.ar    1  UNL1        0.0112
     28 C          62.5278   84.6951   11.6816 C.ar    1  UNL1        0.0570
     29 CL         61.6372   85.8042   12.1574 Cl      1  UNL1       -0.0825
     30 C          60.9299   93.2718    1.9037 C.ar    1  UNL1        0.0397
     31 C          60.3297   94.5830    1.4907 C.ar    1  UNL1        0.1216
     32 N          61.0529   95.0584    0.2656 N.ar    1  UNL1       -0.1676
     33 N          62.1000   94.0410   -0.0786 N.ar    1  UNL1       -0.2480
     34 C          62.0240   92.9369    0.9338 C.ar    1  UNL1        0.0967
     35 C          63.0554   94.1148   -1.2327 C.3     1  UNL1        0.1448
     36 C          62.8405   95.1247   -2.3208 C.3     1  UNL1        0.0988
     37 N          61.5067   95.2229   -3.0000 N.3     1  UNL1       -0.2686
     38 C          60.7336   93.9775   -3.3182 C.3     1  UNL1        0.0897
     39 C          59.3998   94.0757   -3.9975 C.3     1  UNL1        0.0897
     40 N          58.8392   95.4194   -4.3585 N.3     1  UNL1       -0.2691
     41 C          57.5053   95.5176   -5.0377 C.3     1  UNL1        0.0897
     42 C          59.6123   96.6648   -4.0402 C.3     1  UNL1        0.0897
     43 C          60.9461   96.5666   -3.3610 C.3     1  UNL1        0.0897
@<TRIPOS>BOND
     1    22    21    1
     2    22    20    1
     3    20    10    1
     4    10    11   ar
     5    11    12   ar
     6    12     1    1
     7     1     2   ar
     8     2     3   ar
     9     3     4   ar
    10     4     5   ar
    11     5     6   ar
    12     6    30    1
    13    30    31   ar
    14    31    32   ar
    15    32    33   ar
    16    33    35    1
    17    35    36    1
    18    36    37    1
    19    37    38    1
    20    38    39    1
    21    39    40    1
    22    40    41    1
    23    40    42    1
    24    42    43    1
    25    33    34   ar
    26     6     7   ar
    27     7     8   ar
    28     8     9   ar
    29    12    13   ar
    30    13    14   ar
    31    14    15    1
    32    15    16   am
    33    15    17    2
    34    22    23    1
    35    23    24   ar
    36    24    25   ar
    37    25    26   ar
    38    26    27   ar
    39    27    28   ar
    40    28    29    1
    41    14    10   ar
    42    28    23   ar
    43     9     1   ar
    44     9     4   ar
    45    34    30   ar
    46    43    37    1
    47    16    18    1
    48    16    19    1
@<TRIPOS>MOLECULE
*****
 43 48 0 0 0
SMALL
GASTEIGER

@<TRIPOS>ATOM
      1 N          64.3597   90.4684   15.6968 N.ar    1  UNL1       -0.2823
      2 C          63.2374   90.7998   16.6352 C.ar    1  UNL1        0.1831
      3 N          62.4786   89.5365   16.9146 N.ar    1  UNL1       -0.2236
      4 C          63.1319   88.4243   16.1489 C.ar    1  UNL1        0.0991
      5 C          62.8183   86.9615   16.0398 C.ar    1  UNL1        0.0207
      6 C          63.6674   86.0748   15.1781 C.ar    1  UNL1        0.0046
      7 C          64.8300   86.6508   14.4254 C.ar    1  UNL1        0.0017
      8 C          65.1436   88.1135   14.5345 C.ar    1  UNL1        0.0191
      9 C          64.2945   89.0003   15.3962 C.ar    1  UNL1        0.0835
     10 C          66.4851   93.0488   13.7244 C.ar    1  UNL1        0.1512
     11 C          65.2528   92.2066   13.8730 C.ar    1  UNL1        0.0619
     12 C          65.3700   91.4354   15.1541 C.ar    1  UNL1        0.0987
     13 S          66.6747   91.8009   15.7975 S.2     1  UNL1       -0.0618
     14 C          67.3639   92.7981   14.9139 C.ar    1  UNL1        0.1178
     15 C          68.6979   93.4330   15.1741 C.2     1  UNL1        0.2518
     16 N          69.9358   92.8600   14.5502 N.am    1  UNL1       -0.3248
     17 O          68.7938   94.6410   16.0581 O.2     1  UNL1       -0.2697
     18 H          69.8728   92.0671   13.9700 H       1  UNL1        0.1453
     19 H          70.8112   93.2767   14.7210 H       1  UNL1        0.1453
     20 O          66.7858   93.9784   12.5863 O.3     1  UNL1       -0.4740
     21 C          65.5374   92.3970   10.9460 C.3     1  UNL1        0.0523
     22 C          66.2248   93.7011   11.2231 C.3     1  UNL1        0.1891
     23 C          66.3513   94.7279   10.1370 C.ar    1  UNL1        0.0278
     24 C          65.3391   95.8292   10.0244 C.ar    1  UNL1        0.0000
     25 C          65.4656   96.8560    8.9383 C.ar    1  UNL1       -0.0002
     26 C          66.6043   96.7815    7.9647 C.ar    1  UNL1        0.0008
     27 C          67.6164   95.6803    8.0773 C.ar    1  UNL1        0.0112
     28 C          67.4900   94.6534    9.1634 C.ar    1  UNL1        0.0570
     29 CL         68.5022   93.5523    9.2760 Cl      1  UNL1       -0.0825
     30 C          63.3538   84.6119   15.0689 C.ar    1  UNL1        0.0397
     31 C          62.3802   83.8529   15.9210 C.ar    1  UNL1        0.1216
     32 N          62.3835   82.4232   15.4672 N.ar    1  UNL1       -0.1676
     33 N          63.3592   82.2986   14.3347 N.ar    1  UNL1       -0.2480
     34 C          63.9588   83.6513   14.0885 C.ar    1  UNL1        0.0967
     35 C          63.6790   81.0419   13.5807 C.3     1  UNL1        0.1448
     36 C          63.4460   80.9756   12.1004 C.3     1  UNL1        0.0988
     37 N          63.2770   82.2395   11.3104 N.3     1  UNL1       -0.2686
     38 C          64.1294   82.4880   10.1015 C.3     1  UNL1        0.0897
     39 C          63.9604   83.7520    9.3115 C.3     1  UNL1        0.0897
     40 N          62.9388   84.7673    9.7306 N.3     1  UNL1       -0.2691
     41 C          62.7698   86.0312    8.9406 C.3     1  UNL1        0.0897
     42 C          62.0864   84.5188   10.9395 C.3     1  UNL1        0.0897
     43 C          62.2554   83.2549   11.7295 C.3     1  UNL1        0.0897
@<TRIPOS>BOND
     1    22    21    1
     2    22    20    1
     3    20    10    1
     4    10    11   ar
     5    11    12   ar
     6    12     1    1
     7     1     2   ar
     8     2     3   ar
     9     3     4   ar
    10     4     5   ar
    11     5     6   ar
    12     6    30    1
    13    30    31   ar
    14    31    32   ar
    15    32    33   ar
    16    33    35    1
    17    35    36    1
    18    36    37    1
    19    37    38    1
    20    38    39    1
    21    39    40    1
    22    40    41    1
    23    40    42    1
    24    42    43    1
    25    33    34   ar
    26     6     7   ar
    27     7     8   ar
    28     8     9   ar
    29    12    13   ar
    30    13    14   ar
    31    14    15    1
    32    15    16   am
    33    15    17    2
    34    22    23    1
    35    23    24   ar
    36    24    25   ar
    37    25    26   ar
    38    26    27   ar
    39    27    28   ar
    40    28    29    1
    41    14    10   ar
    42    28    23   ar
    43     9     1   ar
    44     9     4   ar
    45    34    30   ar
    46    43    37    1
    47    16    18    1
    48    16    19    1
