@<TRIPOS>MOLECULE
*****
 17 18 0 0 0
SMALL
GASTEIGER

@<TRIPOS>ATOM
      1 C          63.4784   90.7407   13.1384 C.2     1  UNL1        0.0408
      2 C          63.9455   90.3036   14.4951 C.2     1  UNL1        0.0467
      3 C          62.3355   87.6211   11.1315 C.ar    1  UNL1        0.1228
      4 C          62.2792   88.6830   10.0736 C.ar    1  UNL1        0.0361
      5 C          62.7005   89.9808   10.6965 C.ar    1  UNL1        0.0403
      6 C          63.0172   89.7211   12.1395 C.ar    1  UNL1        0.1450
      7 O          62.7916   88.2627   12.4083 O.2     1  UNL1       -0.4578
      8 C          62.6003   85.1378   11.8477 C.3     1  UNL1        0.0084
      9 C          61.9954   86.1721   10.9453 C.3     1  UNL1        0.0645
     10 C          64.4068   91.3232   15.4940 C.2     1  UNL1        0.2112
     11 O          63.4816   91.7777   16.5835 O.2     1  UNL1       -0.2850
     12 C          65.7934   91.8882   15.4032 C.ar    1  UNL1        0.0961
     13 C          66.8337   91.5128   14.3899 C.ar    1  UNL1        0.0218
     14 C          68.0664   92.3203   14.6701 C.ar    1  UNL1        0.0200
     15 C          67.7879   93.1946   15.8567 C.ar    1  UNL1        0.0725
     16 N          66.3831   92.9275   16.3098 N.ar    1  UNL1       -0.3495
     17 H          65.9280   93.3587   17.0689 H       1  UNL1        0.1661
@<TRIPOS>BOND
     1     8     9    1
     2     9     3    1
     3     3     4   ar
     4     4     5   ar
     5     5     6   ar
     6     6     1    1
     7     1     2    2
     8     2    10    1
     9    10    11    2
    10    10    12    1
    11    12    13   ar
    12    13    14   ar
    13    14    15   ar
    14    15    16   ar
    15     6     7   ar
    16     7     3   ar
    17    16    12   ar
    18    16    17    1
@<TRIPOS>MOLECULE
*****
 17 18 0 0 0
SMALL
GASTEIGER

@<TRIPOS>ATOM
      1 C          62.4253   85.6923   10.4185 C.2     1  UNL1        0.0408
      2 C          61.2889   86.3120   11.1764 C.2     1  UNL1        0.0467
      3 C          63.1096   82.1497   11.8492 C.ar    1  UNL1        0.1228
      4 C          64.0368   82.1703   10.6703 C.ar    1  UNL1        0.0361
      5 C          63.8934   83.4998    9.9908 C.ar    1  UNL1        0.0403
      6 C          62.8775   84.3010   10.7498 C.ar    1  UNL1        0.1450
      7 O          62.3931   83.4666   11.8983 O.2     1  UNL1       -0.4578
      8 C          61.7731   81.0115   13.7645 C.3     1  UNL1        0.0084
      9 C          62.9304   81.0120   12.8102 C.3     1  UNL1        0.0645
     10 C          60.8367   87.7034   10.8451 C.2     1  UNL1        0.2112
     11 O          60.9682   88.7971   11.8631 O.2     1  UNL1       -0.2850
     12 C          60.2529   88.0009    9.4958 C.ar    1  UNL1        0.0961
     13 C          59.5051   87.0342    8.6262 C.ar    1  UNL1        0.0218
     14 C          59.1044   87.7531    7.3721 C.ar    1  UNL1        0.0200
     15 C          59.6046   89.1641    7.4667 C.ar    1  UNL1        0.0725
     16 N          60.3144   89.3172    8.7792 N.ar    1  UNL1       -0.3495
     17 H          60.7450   90.1377    9.1120 H       1  UNL1        0.1661
@<TRIPOS>BOND
     1     8     9    1
     2     9     3    1
     3     3     4   ar
     4     4     5   ar
     5     5     6   ar
     6     6     1    1
     7     1     2    2
     8     2    10    1
     9    10    11    2
    10    10    12    1
    11    12    13   ar
    12    13    14   ar
    13    14    15   ar
    14    15    16   ar
    15     6     7   ar
    16     7     3   ar
    17    16    12   ar
    18    16    17    1
@<TRIPOS>MOLECULE
*****
 17 18 0 0 0
SMALL
GASTEIGER

@<TRIPOS>ATOM
      1 C          62.3394   84.9588   11.5315 C.2     1  UNL1        0.0408
      2 C          63.1253   85.2000   12.7862 C.2     1  UNL1        0.0467
      3 C          60.7098   88.2789   10.3539 C.ar    1  UNL1        0.1228
      4 C          60.6971   87.4829    9.0827 C.ar    1  UNL1        0.0361
      5 C          61.3060   86.1422    9.3690 C.ar    1  UNL1        0.0403
      6 C          61.6950   86.1097   10.8173 C.ar    1  UNL1        0.1450
      7 O          61.3265   87.4302   11.4260 O.2     1  UNL1       -0.4578
      8 C          59.5070   90.0750   11.7953 C.3     1  UNL1        0.0084
      9 C          60.1959   89.6779   10.5234 C.3     1  UNL1        0.0645
     10 C          63.7697   84.0490   13.5005 C.2     1  UNL1        0.2112
     11 O          65.1006   84.2310   14.1679 O.2     1  UNL1       -0.2850
     12 C          63.0831   82.7162   13.5473 C.ar    1  UNL1        0.0961
     13 C          63.3635   81.5481   12.6491 C.ar    1  UNL1        0.0218
     14 C          62.4494   80.4274   13.0471 C.ar    1  UNL1        0.0200
     15 C          61.6040   80.9029   14.1913 C.ar    1  UNL1        0.0725
     16 N          61.9957   82.3175   14.5004 N.ar    1  UNL1       -0.3495
     17 H          61.6072   82.8847   15.2052 H       1  UNL1        0.1661
@<TRIPOS>BOND
     1     8     9    1
     2     9     3    1
     3     3     4   ar
     4     4     5   ar
     5     5     6   ar
     6     6     1    1
     7     1     2    2
     8     2    10    1
     9    10    11    2
    10    10    12    1
    11    12    13   ar
    12    13    14   ar
    13    14    15   ar
    14    15    16   ar
    15     6     7   ar
    16     7     3   ar
    17    16    12   ar
    18    16    17    1
@<TRIPOS>MOLECULE
*****
 17 18 0 0 0
SMALL
GASTEIGER

@<TRIPOS>ATOM
      1 C          62.4389   84.9436   11.7638 C.2     1  UNL1        0.0408
      2 C          63.3727   85.1489   12.9196 C.2     1  UNL1        0.0467
      3 C          60.7478   87.4850    9.3665 C.ar    1  UNL1        0.1228
      4 C          61.6206   88.3923   10.1819 C.ar    1  UNL1        0.0361
      5 C          62.3604   87.5508   11.1792 C.ar    1  UNL1        0.0403
      6 C          61.9447   86.1233   10.9802 C.ar    1  UNL1        0.1450
      7 O          60.9480   86.0827    9.8599 O.2     1  UNL1       -0.4578
      8 C          58.9144   86.9058    7.6192 C.3     1  UNL1        0.0084
      9 C          59.8349   87.9061    8.2533 C.3     1  UNL1        0.0645
     10 C          63.8669   83.9692   13.7033 C.2     1  UNL1        0.2112
     11 O          65.0717   84.1068   14.5861 O.2     1  UNL1       -0.2850
     12 C          63.1563   82.6519   13.6040 C.ar    1  UNL1        0.0961
     13 C          61.9412   82.2449   14.3835 C.ar    1  UNL1        0.0218
     14 C          61.5698   80.8519   13.9691 C.ar    1  UNL1        0.0200
     15 C          62.5554   80.3981   12.9335 C.ar    1  UNL1        0.0725
     16 N          63.5360   81.5106   12.7078 N.ar    1  UNL1       -0.3495
     17 H          64.2953   81.4945   12.0815 H       1  UNL1        0.1661
@<TRIPOS>BOND
     1     8     9    1
     2     9     3    1
     3     3     4   ar
     4     4     5   ar
     5     5     6   ar
     6     6     1    1
     7     1     2    2
     8     2    10    1
     9    10    11    2
    10    10    12    1
    11    12    13   ar
    12    13    14   ar
    13    14    15   ar
    14    15    16   ar
    15     6     7   ar
    16     7     3   ar
    17    16    12   ar
    18    16    17    1
@<TRIPOS>MOLECULE
*****
 17 18 0 0 0
SMALL
GASTEIGER

@<TRIPOS>ATOM
      1 C          63.1027   90.6570   11.7612 C.2     1  UNL1        0.0408
      2 C          62.6491   90.3573   10.3632 C.2     1  UNL1        0.0467
      3 C          65.9070   92.9881   13.0906 C.ar    1  UNL1        0.1228
      4 C          66.0943   93.1253   11.6087 C.ar    1  UNL1        0.0361
      5 C          65.0666   92.2688   10.9303 C.ar    1  UNL1        0.0403
      6 C          64.2441   91.6022   11.9930 C.ar    1  UNL1        0.1450
      7 O          64.7636   92.0468   13.3281 O.2     1  UNL1       -0.4578
      8 C          67.6966   92.8840   14.9711 C.3     1  UNL1        0.0084
      9 C          66.7204   93.6722   14.1491 C.3     1  UNL1        0.0645
     10 C          61.5076   89.4121   10.1314 C.2     1  UNL1        0.2112
     11 O          60.1647   89.9431    9.7261 O.2     1  UNL1       -0.2850
     12 C          61.7093   87.9359   10.3050 C.ar    1  UNL1        0.0961
     13 C          62.2336   86.9895    9.2660 C.ar    1  UNL1        0.0218
     14 C          62.2704   85.6156    9.8669 C.ar    1  UNL1        0.0200
     15 C          61.7688   85.7128   11.2772 C.ar    1  UNL1        0.0725
     16 N          61.4220   87.1469   11.5480 N.ar    1  UNL1       -0.3495
     17 H          61.0681   87.5070   12.3931 H       1  UNL1        0.1661
@<TRIPOS>BOND
     1     8     9    1
     2     9     3    1
     3     3     4   ar
     4     4     5   ar
     5     5     6   ar
     6     6     1    1
     7     1     2    2
     8     2    10    1
     9    10    11    2
    10    10    12    1
    11    12    13   ar
    12    13    14   ar
    13    14    15   ar
    14    15    16   ar
    15     6     7   ar
    16     7     3   ar
    17    16    12   ar
    18    16    17    1
@<TRIPOS>MOLECULE
*****
 17 18 0 0 0
SMALL
GASTEIGER

@<TRIPOS>ATOM
      1 C          62.1054   85.8507   11.2839 C.2     1  UNL1        0.0408
      2 C          61.9593   86.5205    9.9497 C.2     1  UNL1        0.0467
      3 C          63.3478   82.2856   12.1851 C.ar    1  UNL1        0.1228
      4 C          63.9867   82.4845   10.8426 C.ar    1  UNL1        0.0361
      5 C          63.5991   83.8442   10.3416 C.ar    1  UNL1        0.0403
      6 C          62.7206   84.4857   11.3745 C.ar    1  UNL1        0.1450
      7 O          62.5653   83.5224   12.5138 O.2     1  UNL1       -0.4578
      8 C          62.2665   80.2085   13.3104 C.3     1  UNL1        0.0084
      9 C          63.4699   81.0644   13.0475 C.3     1  UNL1        0.0645
     10 C          61.3441   87.8856    9.8591 C.2     1  UNL1        0.2112
     11 O          59.9723   88.0527    9.2761 O.2     1  UNL1       -0.2850
     12 C          62.1009   89.0835   10.3516 C.ar    1  UNL1        0.0961
     13 C          62.8083   89.1988   11.6693 C.ar    1  UNL1        0.0218
     14 C          63.4277   90.5628   11.7450 C.ar    1  UNL1        0.0200
     15 C          63.1032   91.2904   10.4741 C.ar    1  UNL1        0.0725
     16 N          62.2831   90.3761    9.6129 N.ar    1  UNL1       -0.3495
     17 H          61.9271   90.5874    8.7197 H       1  UNL1        0.1661
@<TRIPOS>BOND
     1     8     9    1
     2     9     3    1
     3     3     4   ar
     4     4     5   ar
     5     5     6   ar
     6     6     1    1
     7     1     2    2
     8     2    10    1
     9    10    11    2
    10    10    12    1
    11    12    13   ar
    12    13    14   ar
    13    14    15   ar
    14    15    16   ar
    15     6     7   ar
    16     7     3   ar
    17    16    12   ar
    18    16    17    1
@<TRIPOS>MOLECULE
*****
 17 18 0 0 0
SMALL
GASTEIGER

@<TRIPOS>ATOM
      1 C          61.0971   88.4431   10.2957 C.2     1  UNL1        0.0408
      2 C          62.4272   88.7108   10.9352 C.2     1  UNL1        0.0467
      3 C          61.5181   85.6291    7.6557 C.ar    1  UNL1        0.1228
      4 C          60.0489   85.9110    7.5470 C.ar    1  UNL1        0.0361
      5 C          59.7123   86.9995    8.5227 C.ar    1  UNL1        0.0403
      6 C          60.9736   87.3902    9.2345 C.ar    1  UNL1        0.1450
      7 O          62.0896   86.5433    8.6986 O.2     1  UNL1       -0.4578
      8 C          61.7737   84.1719    5.5200 C.3     1  UNL1        0.0084
      9 C          62.2818   84.6116    6.8610 C.3     1  UNL1        0.0645
     10 C          62.5508   89.7637   11.9966 C.2     1  UNL1        0.2112
     11 O          61.6280   89.7487   13.1789 O.2     1  UNL1       -0.2850
     12 C          63.5973   90.8315   11.8754 C.ar    1  UNL1        0.0961
     13 C          63.9223   91.6107   10.6355 C.ar    1  UNL1        0.0218
     14 C          65.0283   92.5684   10.9665 C.ar    1  UNL1        0.0200
     15 C          65.3869   92.3810   12.4109 C.ar    1  UNL1        0.0725
     16 N          64.5025   91.3075   12.9726 N.ar    1  UNL1       -0.3495
     17 H          64.5141   90.9740   13.8988 H       1  UNL1        0.1661
@<TRIPOS>BOND
     1     8     9    1
     2     9     3    1
     3     3     4   ar
     4     4     5   ar
     5     5     6   ar
     6     6     1    1
     7     1     2    2
     8     2    10    1
     9    10    11    2
    10    10    12    1
    11    12    13   ar
    12    13    14   ar
    13    14    15   ar
    14    15    16   ar
    15     6     7   ar
    16     7     3   ar
    17    16    12   ar
    18    16    17    1
@<TRIPOS>MOLECULE
*****
 17 18 0 0 0
SMALL
GASTEIGER

@<TRIPOS>ATOM
      1 C          62.5220   85.1568   11.6070 C.2     1  UNL1        0.0408
      2 C          63.1054   83.7811   11.7375 C.2     1  UNL1        0.0467
      3 C          60.4316   86.5552    8.6507 C.ar    1  UNL1        0.1228
      4 C          61.6312   86.0171    7.9285 C.ar    1  UNL1        0.0361
      5 C          62.5603   85.4278    8.9481 C.ar    1  UNL1        0.0403
      6 C          61.9349   85.6016   10.3004 C.ar    1  UNL1        0.1450
      7 O          60.6194   86.2984   10.1165 O.2     1  UNL1       -0.4578
      8 C          59.3984   88.6053    7.4344 C.3     1  UNL1        0.0084
      9 C          59.2516   87.2314    8.0180 C.3     1  UNL1        0.0645
     10 C          63.6925   83.3362   13.0443 C.2     1  UNL1        0.2112
     11 O          64.4752   82.0588   13.1186 O.2     1  UNL1       -0.2850
     12 C          63.4968   84.1688   14.2766 C.ar    1  UNL1        0.0961
     13 C          62.3571   84.0556   15.2451 C.ar    1  UNL1        0.0218
     14 C          62.5624   85.0775   16.3238 C.ar    1  UNL1        0.0200
     15 C          63.8289   85.8223   16.0219 C.ar    1  UNL1        0.0725
     16 N          64.4065   85.2606   14.7565 N.ar    1  UNL1       -0.3495
     17 H          65.2368   85.5566   14.3181 H       1  UNL1        0.1661
@<TRIPOS>BOND
     1     8     9    1
     2     9     3    1
     3     3     4   ar
     4     4     5   ar
     5     5     6   ar
     6     6     1    1
     7     1     2    2
     8     2    10    1
     9    10    11    2
    10    10    12    1
    11    12    13   ar
    12    13    14   ar
    13    14    15   ar
    14    15    16   ar
    15     6     7   ar
    16     7     3   ar
    17    16    12   ar
    18    16    17    1
@<TRIPOS>MOLECULE
*****
 17 18 0 0 0
SMALL
GASTEIGER

@<TRIPOS>ATOM
      1 C          62.3200   90.2539   11.9171 C.2     1  UNL1        0.0408
      2 C          62.0131   89.3829   10.7351 C.2     1  UNL1        0.0467
      3 C          65.3878   92.5332   12.5946 C.ar    1  UNL1        0.1228
      4 C          65.3078   92.5921   11.0979 C.ar    1  UNL1        0.0361
      5 C          64.1489   91.7454   10.6619 C.ar    1  UNL1        0.0403
      6 C          63.5126   91.1633   11.8892 C.ar    1  UNL1        0.1450
      7 O          64.2782   91.6502   13.0836 O.2     1  UNL1       -0.4578
      8 C          67.4932   92.4504   14.1144 C.3     1  UNL1        0.0084
      9 C          66.3996   93.2343   13.4517 C.3     1  UNL1        0.0645
     10 C          60.8205   88.4735   10.7630 C.2     1  UNL1        0.2112
     11 O          60.0600   88.2730   12.0402 O.2     1  UNL1       -0.2850
     12 C          60.3885   87.7647    9.5136 C.ar    1  UNL1        0.0961
     13 C          60.7475   86.3604    9.1277 C.ar    1  UNL1        0.0218
     14 C          60.1026   86.0635    7.8064 C.ar    1  UNL1        0.0200
     15 C          59.3449   87.2844    7.3756 C.ar    1  UNL1        0.0725
     16 N          59.5216   88.3358    8.4308 N.ar    1  UNL1       -0.3495
     17 H          59.1363   89.2416    8.4154 H       1  UNL1        0.1661
@<TRIPOS>BOND
     1     8     9    1
     2     9     3    1
     3     3     4   ar
     4     4     5   ar
     5     5     6   ar
     6     6     1    1
     7     1     2    2
     8     2    10    1
     9    10    11    2
    10    10    12    1
    11    12    13   ar
    12    13    14   ar
    13    14    15   ar
    14    15    16   ar
    15     6     7   ar
    16     7     3   ar
    17    16    12   ar
    18    16    17    1
