@<TRIPOS>MOLECULE
*****
 41 46 0 0 0
SMALL
GASTEIGER

@<TRIPOS>ATOM
      1 C          63.6463   84.7645   12.9930 C.ar    1  UNL1        0.0907
      2 C          62.8849   84.0365   11.9252 C.ar    1  UNL1        0.1496
      3 O          62.2049   85.0580   11.0626 O.2     1  UNL1       -0.4533
      4 C          62.5461   86.4173   11.5972 C.ar    1  UNL1        0.1454
      5 C          62.1608   87.7968   11.1518 C.ar    1  UNL1        0.0375
      6 C          62.6662   88.9949   11.8995 C.ar    1  UNL1        0.0031
      7 C          63.5571   88.8135   13.0926 C.ar    1  UNL1       -0.0001
      8 C          63.9424   87.4340   13.5381 C.ar    1  UNL1        0.0033
      9 C          63.4370   86.2359   12.7904 C.ar    1  UNL1        0.0419
     10 C          62.8155   82.5483   11.7507 C.ar    1  UNL1        0.0349
     11 C          62.3240   81.6836   12.8735 C.ar    1  UNL1        0.0053
     12 C          62.2547   80.1954   12.6989 C.ar    1  UNL1        0.0297
     13 C          62.6768   79.5719   11.4016 C.ar    1  UNL1        0.1401
     14 F          62.6075   78.0837   11.2271 F       1  UNL1       -0.2042
     15 C          63.1683   80.4366   10.2789 C.ar    1  UNL1        0.0297
     16 C          63.2377   81.9248   10.4534 C.ar    1  UNL1        0.0053
     17 C          64.0625   90.0116   13.8403 C.ar    1  UNL1       -0.0038
     18 C          64.8305   91.0780   13.1171 C.ar    1  UNL1        0.0042
     19 C          65.3359   92.2761   13.8648 C.ar    1  UNL1        0.0533
     20 C          65.0734   92.4079   15.3358 C.ar    1  UNL1        0.0042
     21 C          64.3054   91.3415   16.0590 C.ar    1  UNL1       -0.0041
     22 C          63.8000   90.1434   15.3113 C.ar    1  UNL1       -0.0218
     23 C          63.0320   89.0770   16.0346 C.3     1  UNL1        0.0310
     24 C          66.1039   93.3425   13.1415 C.2     1  UNL1        0.2460
     25 O          67.3655   93.8930   13.7375 O.2     1  UNL1       -0.2701
     26 N          65.6102   93.8583   11.8224 N.am    1  UNL1       -0.3005
     27 H          64.7821   93.4969   11.4312 H       1  UNL1        0.1499
     28 C          66.3781   94.9246   11.0991 C.3     1  UNL1        0.0775
     29 C          66.8718   96.2855   10.7065 C.3     1  UNL1        0.0243
     30 C          65.8549   96.1432   11.8000 C.3     1  UNL1        0.0243
     31 C          67.1681   94.0764   10.1470 C.ar    1  UNL1        0.0129
     32 C          67.5641   92.6827   10.5356 C.ar    1  UNL1        0.0004
     33 C          68.3540   91.8346    9.5834 C.ar    1  UNL1        0.0204
     34 C          68.7479   92.3800    8.2427 C.ar    1  UNL1        0.0989
     35 N          68.3519   93.7735    7.8542 N.ar    1  UNL1       -0.2426
     36 C          67.5619   94.6218    8.8064 C.ar    1  UNL1        0.0961
     37 C          64.6722   82.5149   16.0975 C.3     1  UNL1        0.1109
     38 N          63.8464   83.1473   15.0167 N.am    1  UNL1       -0.2991
     39 C          64.4721   84.1321   14.0738 C.2     1  UNL1        0.2490
     40 O          65.9235   84.4843   14.2119 O.2     1  UNL1       -0.2700
     41 H          62.8937   82.9161   14.9261 H       1  UNL1        0.1498
@<TRIPOS>BOND
     1    37    38    1
     2    38    39   am
     3    39    40    2
     4    39     1    1
     5     1     2   ar
     6     2    10    1
     7    10    11   ar
     8    11    12   ar
     9    12    13   ar
    10    13    14    1
    11    13    15   ar
    12    15    16   ar
    13     2     3   ar
    14     3     4   ar
    15     4     5   ar
    16     5     6   ar
    17     6     7   ar
    18     7    17    1
    19    17    18   ar
    20    18    19   ar
    21    19    24    1
    22    24    25    2
    23    24    26   am
    24    26    28    1
    25    28    31    1
    26    31    32   ar
    27    32    33   ar
    28    33    34   ar
    29    34    35   ar
    30    35    36   ar
    31    28    29    1
    32    29    30    1
    33    19    20   ar
    34    20    21   ar
    35    21    22   ar
    36    22    23    1
    37     7     8   ar
    38     8     9   ar
    39     9     1   ar
    40    16    10   ar
    41     9     4   ar
    42    22    17   ar
    43    30    28    1
    44    36    31   ar
    45    38    41    1
    46    26    27    1
@<TRIPOS>MOLECULE
*****
 41 46 0 0 0
SMALL
GASTEIGER

@<TRIPOS>ATOM
      1 C          64.6038   91.4136   12.0691 C.ar    1  UNL1        0.0907
      2 C          64.8223   91.5371   13.5479 C.ar    1  UNL1        0.1496
      3 O          63.7635   90.7324   14.2417 O.2     1  UNL1       -0.4533
      4 C          62.8906   90.1114   13.1916 C.ar    1  UNL1        0.1454
      5 C          61.6901   89.2171   13.2846 C.ar    1  UNL1        0.0375
      6 C          61.0089   88.7438   12.0349 C.ar    1  UNL1        0.0031
      7 C          61.5283   89.1648   10.6921 C.ar    1  UNL1       -0.0001
      8 C          62.7288   90.0591   10.5991 C.ar    1  UNL1        0.0033
      9 C          63.4100   90.5324   11.8488 C.ar    1  UNL1        0.0419
     10 C          65.9087   92.3268   14.2158 C.ar    1  UNL1        0.0349
     11 C          66.6827   91.7260   15.3516 C.ar    1  UNL1        0.0053
     12 C          67.7691   92.5157   16.0194 C.ar    1  UNL1        0.0297
     13 C          68.0817   93.9061   15.5515 C.ar    1  UNL1        0.1401
     14 F          69.1682   94.6957   16.2193 F       1  UNL1       -0.2042
     15 C          67.3078   94.5068   14.4157 C.ar    1  UNL1        0.0297
     16 C          66.2213   93.7172   13.7478 C.ar    1  UNL1        0.0053
     17 C          60.8470   88.6914    9.4424 C.ar    1  UNL1       -0.0038
     18 C          60.4335   89.6802    8.3930 C.ar    1  UNL1        0.0042
     19 C          59.7523   89.2068    7.1432 C.ar    1  UNL1        0.0533
     20 C          59.4845   87.7446    6.9429 C.ar    1  UNL1        0.0042
     21 C          59.8980   86.7557    7.9923 C.ar    1  UNL1       -0.0041
     22 C          60.5792   87.2291    9.2420 C.ar    1  UNL1       -0.0218
     23 C          60.9927   86.2403   10.2915 C.3     1  UNL1        0.0310
     24 C          59.3388   90.1957    6.0939 C.2     1  UNL1        0.2460
     25 O          57.8836   90.4246    5.8110 O.2     1  UNL1       -0.2701
     26 N          60.3805   90.9555    5.3274 N.am    1  UNL1       -0.3005
     27 H          61.3356   90.8052    5.5131 H       1  UNL1        0.1499
     28 C          59.9670   91.9444    4.2780 C.3     1  UNL1        0.0775
     29 C          59.1106   92.8996    3.5008 C.3     1  UNL1        0.0243
     30 C          58.5480   92.1910    4.6973 C.3     1  UNL1        0.0243
     31 C          61.2423   92.0412    3.4944 C.ar    1  UNL1        0.0129
     32 C          62.3779   91.1071    3.7914 C.ar    1  UNL1        0.0004
     33 C          63.6531   91.2040    3.0077 C.ar    1  UNL1        0.0204
     34 C          63.7930   92.2348    1.9270 C.ar    1  UNL1        0.0989
     35 N          62.6575   93.1687    1.6300 N.ar    1  UNL1       -0.2426
     36 C          61.3821   93.0720    2.4137 C.ar    1  UNL1        0.0961
     37 C          67.7431   92.4620    9.8790 C.3     1  UNL1        0.1109
     38 N          66.9134   91.8175   10.9497 N.am    1  UNL1       -0.2991
     39 C          65.4335   92.0580   10.9984 C.2     1  UNL1        0.2490
     40 O          64.7835   92.9427    9.9764 O.2     1  UNL1       -0.2700
     41 H          67.3401   91.2368   11.6205 H       1  UNL1        0.1498
@<TRIPOS>BOND
     1    37    38    1
     2    38    39   am
     3    39    40    2
     4    39     1    1
     5     1     2   ar
     6     2    10    1
     7    10    11   ar
     8    11    12   ar
     9    12    13   ar
    10    13    14    1
    11    13    15   ar
    12    15    16   ar
    13     2     3   ar
    14     3     4   ar
    15     4     5   ar
    16     5     6   ar
    17     6     7   ar
    18     7    17    1
    19    17    18   ar
    20    18    19   ar
    21    19    24    1
    22    24    25    2
    23    24    26   am
    24    26    28    1
    25    28    31    1
    26    31    32   ar
    27    32    33   ar
    28    33    34   ar
    29    34    35   ar
    30    35    36   ar
    31    28    29    1
    32    29    30    1
    33    19    20   ar
    34    20    21   ar
    35    21    22   ar
    36    22    23    1
    37     7     8   ar
    38     8     9   ar
    39     9     1   ar
    40    16    10   ar
    41     9     4   ar
    42    22    17   ar
    43    30    28    1
    44    36    31   ar
    45    38    41    1
    46    26    27    1
@<TRIPOS>MOLECULE
*****
 41 46 0 0 0
SMALL
GASTEIGER

@<TRIPOS>ATOM
      1 C          63.2470   84.6810   12.1039 C.ar    1  UNL1        0.0907
      2 C          63.5592   83.3066   12.6172 C.ar    1  UNL1        0.1496
      3 O          64.2167   83.4508   13.9576 O.2     1  UNL1       -0.4533
      4 C          64.3109   84.9143   14.2728 C.ar    1  UNL1        0.1454
      5 C          64.8649   85.6528   15.4550 C.ar    1  UNL1        0.0375
      6 C          64.8196   87.1516   15.4915 C.ar    1  UNL1        0.0031
      7 C          64.2202   87.9119   14.3458 C.ar    1  UNL1       -0.0001
      8 C          63.6662   87.1734   13.1636 C.ar    1  UNL1        0.0033
      9 C          63.7115   85.6746   13.1271 C.ar    1  UNL1        0.0419
     10 C          63.2655   82.0148   11.9135 C.ar    1  UNL1        0.0349
     11 C          62.7004   80.8554   12.6792 C.ar    1  UNL1        0.0053
     12 C          62.4067   79.5636   11.9755 C.ar    1  UNL1        0.0297
     13 C          62.6781   79.4313   10.5063 C.ar    1  UNL1        0.1401
     14 F          62.3844   78.1396    9.8026 F       1  UNL1       -0.2042
     15 C          63.2432   80.5908    9.7406 C.ar    1  UNL1        0.0297
     16 C          63.5369   81.8825   10.4443 C.ar    1  UNL1        0.0053
     17 C          64.1749   89.4109   14.3823 C.ar    1  UNL1       -0.0038
     18 C          64.5545   90.2025   13.1662 C.ar    1  UNL1        0.0042
     19 C          64.5092   91.7015   13.2027 C.ar    1  UNL1        0.0533
     20 C          64.0842   92.4086   14.4555 C.ar    1  UNL1        0.0042
     21 C          63.7046   91.6168   15.6716 C.ar    1  UNL1       -0.0041
     22 C          63.7499   90.1180   15.6351 C.ar    1  UNL1       -0.0218
     23 C          63.3702   89.3262   16.8512 C.3     1  UNL1        0.0310
     24 C          64.8889   92.4932   11.9866 C.2     1  UNL1        0.2460
     25 O          64.4814   92.0164   10.6240 O.2     1  UNL1       -0.2701
     26 N          65.6761   93.7616   12.1330 N.am    1  UNL1       -0.3005
     27 H          65.9435   94.0745   13.0273 H       1  UNL1        0.1499
     28 C          66.0557   94.5533   10.9169 C.3     1  UNL1        0.0775
     29 C          66.0916   95.6710    9.9172 C.3     1  UNL1        0.0243
     30 C          65.1976   95.7671   11.1179 C.3     1  UNL1        0.0243
     31 C          67.0456   93.6145   10.2935 C.ar    1  UNL1        0.0129
     32 C          67.6649   92.5232   11.1155 C.ar    1  UNL1        0.0004
     33 C          68.6548   91.5844   10.4920 C.ar    1  UNL1        0.0204
     34 C          69.0254   91.7368    9.0465 C.ar    1  UNL1        0.0989
     35 N          68.4062   92.8280    8.2246 N.ar    1  UNL1       -0.2426
     36 C          67.4163   93.7668    8.8480 C.ar    1  UNL1        0.0961
     37 C          62.6593   85.1010    8.2015 C.3     1  UNL1        0.1109
     38 N          63.3201   84.7770    9.5085 N.am    1  UNL1       -0.2991
     39 C          62.5862   85.0050   10.7968 C.2     1  UNL1        0.2490
     40 O          61.1916   85.5569   10.7779 O.2     1  UNL1       -0.2700
     41 H          64.2354   84.4147    9.5209 H       1  UNL1        0.1498
@<TRIPOS>BOND
     1    37    38    1
     2    38    39   am
     3    39    40    2
     4    39     1    1
     5     1     2   ar
     6     2    10    1
     7    10    11   ar
     8    11    12   ar
     9    12    13   ar
    10    13    14    1
    11    13    15   ar
    12    15    16   ar
    13     2     3   ar
    14     3     4   ar
    15     4     5   ar
    16     5     6   ar
    17     6     7   ar
    18     7    17    1
    19    17    18   ar
    20    18    19   ar
    21    19    24    1
    22    24    25    2
    23    24    26   am
    24    26    28    1
    25    28    31    1
    26    31    32   ar
    27    32    33   ar
    28    33    34   ar
    29    34    35   ar
    30    35    36   ar
    31    28    29    1
    32    29    30    1
    33    19    20   ar
    34    20    21   ar
    35    21    22   ar
    36    22    23    1
    37     7     8   ar
    38     8     9   ar
    39     9     1   ar
    40    16    10   ar
    41     9     4   ar
    42    22    17   ar
    43    30    28    1
    44    36    31   ar
    45    38    41    1
    46    26    27    1
@<TRIPOS>MOLECULE
*****
 41 46 0 0 0
SMALL
GASTEIGER

@<TRIPOS>ATOM
      1 C          61.6815   88.5756   10.2444 C.ar    1  UNL1        0.0907
      2 C          61.8863   87.1907   10.7828 C.ar    1  UNL1        0.1496
      3 O          61.1692   86.2315    9.8796 O.2     1  UNL1       -0.4533
      4 C          60.5214   87.0236    8.7829 C.ar    1  UNL1        0.1454
      5 C          59.6840   86.6129    7.6081 C.ar    1  UNL1        0.0375
      6 C          59.1633   87.6510    6.6588 C.ar    1  UNL1        0.0031
      7 C          59.4800   89.0997    6.8842 C.ar    1  UNL1       -0.0001
      8 C          60.3173   89.5105    8.0590 C.ar    1  UNL1        0.0033
      9 C          60.8380   88.4724    9.0083 C.ar    1  UNL1        0.0419
     10 C          62.6703   86.8285   12.0092 C.ar    1  UNL1        0.0349
     11 C          62.7542   85.3973   12.4503 C.ar    1  UNL1        0.0053
     12 C          63.5383   85.0351   13.6767 C.ar    1  UNL1        0.0297
     13 C          64.2385   86.1041   14.4620 C.ar    1  UNL1        0.1401
     14 F          65.0226   85.7419   15.6884 F       1  UNL1       -0.2042
     15 C          64.1547   87.5353   14.0210 C.ar    1  UNL1        0.0297
     16 C          63.3706   87.8975   12.7946 C.ar    1  UNL1        0.0053
     17 C          58.9592   90.1378    5.9348 C.ar    1  UNL1       -0.0038
     18 C          59.9151   90.9395    5.1021 C.ar    1  UNL1        0.0042
     19 C          59.3943   91.9776    4.1527 C.ar    1  UNL1        0.0533
     20 C          57.9177   92.2139    4.0360 C.ar    1  UNL1        0.0042
     21 C          56.9617   91.4121    4.8688 C.ar    1  UNL1       -0.0041
     22 C          57.4825   90.3741    5.8181 C.ar    1  UNL1       -0.0218
     23 C          56.5266   89.5723    6.6509 C.3     1  UNL1        0.0310
     24 C          60.3502   92.7793    3.3200 C.2     1  UNL1        0.2460
     25 O          60.2203   94.2723    3.2574 O.2     1  UNL1       -0.2701
     26 N          61.4361   92.0880    2.5499 N.am    1  UNL1       -0.3005
     27 H          61.5214   91.1081    2.5910 H       1  UNL1        0.1499
     28 C          62.3920   92.8898    1.7172 C.3     1  UNL1        0.0775
     29 C          63.6528   93.5828    1.2927 C.3     1  UNL1        0.0243
     30 C          63.6018   92.8551    2.6034 C.3     1  UNL1        0.0243
     31 C          61.5143   93.2029    0.5419 C.ar    1  UNL1        0.0129
     32 C          60.5802   92.1596    0.0042 C.ar    1  UNL1        0.0004
     33 C          59.7025   92.4728   -1.1711 C.ar    1  UNL1        0.0204
     34 C          59.7588   93.8293   -1.8089 C.ar    1  UNL1        0.0989
     35 N          60.6928   94.8725   -1.2713 N.ar    1  UNL1       -0.2426
     36 C          61.5706   94.5594   -0.0959 C.ar    1  UNL1        0.0961
     37 C          63.9892   91.7488   10.8408 C.3     1  UNL1        0.1109
     38 N          63.4458   90.4829   10.2475 N.am    1  UNL1       -0.2991
     39 C          62.2249   89.8416   10.8377 C.2     1  UNL1        0.2490
     40 O          61.5476   90.4663   12.0212 O.2     1  UNL1       -0.2700
     41 H          63.8904   90.0729    9.4706 H       1  UNL1        0.1498
@<TRIPOS>BOND
     1    37    38    1
     2    38    39   am
     3    39    40    2
     4    39     1    1
     5     1     2   ar
     6     2    10    1
     7    10    11   ar
     8    11    12   ar
     9    12    13   ar
    10    13    14    1
    11    13    15   ar
    12    15    16   ar
    13     2     3   ar
    14     3     4   ar
    15     4     5   ar
    16     5     6   ar
    17     6     7   ar
    18     7    17    1
    19    17    18   ar
    20    18    19   ar
    21    19    24    1
    22    24    25    2
    23    24    26   am
    24    26    28    1
    25    28    31    1
    26    31    32   ar
    27    32    33   ar
    28    33    34   ar
    29    34    35   ar
    30    35    36   ar
    31    28    29    1
    32    29    30    1
    33    19    20   ar
    34    20    21   ar
    35    21    22   ar
    36    22    23    1
    37     7     8   ar
    38     8     9   ar
    39     9     1   ar
    40    16    10   ar
    41     9     4   ar
    42    22    17   ar
    43    30    28    1
    44    36    31   ar
    45    38    41    1
    46    26    27    1
