@<TRIPOS>MOLECULE
*****
 40 43 0 0 0
SMALL
GASTEIGER

@<TRIPOS>ATOM
      1 N          63.1521   88.7142   12.8994 N.ar    1  UNL1       -0.2470
      2 C          62.3325   88.5253   11.6575 C.ar    1  UNL1        0.2657
      3 O          61.7359   89.7144   10.9645 O.2     1  UNL1       -0.2668
      4 C          62.1093   87.1474   11.1086 C.ar    1  UNL1        0.0744
      5 C          62.7058   85.9583   11.8016 C.ar    1  UNL1        0.0848
      6 N          63.5255   86.1472   13.0435 N.ar    1  UNL1       -0.2754
      7 C          63.7486   87.5251   13.5924 C.ar    1  UNL1        0.3341
      8 O          64.5683   87.7141   14.8344 O.2     1  UNL1       -0.2462
      9 C          61.2896   86.9584    9.8666 C.ar    1  UNL1        0.0166
     10 C          59.9682   87.6544    9.7270 C.ar    1  UNL1        0.0010
     11 C          59.1486   87.4655    8.4851 C.ar    1  UNL1        0.0001
     12 C          59.6502   86.5805    7.3827 C.ar    1  UNL1        0.0009
     13 C          60.9716   85.8845    7.5223 C.ar    1  UNL1        0.0114
     14 C          61.7913   86.0735    8.7643 C.ar    1  UNL1        0.0578
     15 CL         63.1127   85.3775    8.9039 Cl      1  UNL1       -0.0822
     16 C          63.3753   90.0922   13.4484 C.3     1  UNL1        0.1337
     17 C          64.5108   90.9284   12.9372 C.3     1  UNL1        0.1000
     18 C          65.5309   91.4729   13.8928 C.ar    1  UNL1       -0.0061
     19 C          66.9607   91.6153   13.4626 C.ar    1  UNL1       -0.0029
     20 C          67.9807   92.1597   14.4182 C.ar    1  UNL1       -0.0003
     21 C          67.5708   92.5617   15.8040 C.ar    1  UNL1       -0.0000
     22 C          66.1410   92.4192   16.2342 C.ar    1  UNL1       -0.0003
     23 C          65.1210   91.8748   15.2786 C.ar    1  UNL1       -0.0029
     24 N          64.6263   91.2202   11.4704 N.3     1  UNL1       -0.2935
     25 H          65.4998   90.7990   11.1543 H       1  UNL1        0.1236
     26 C          64.6301   92.6399   10.9862 C.3     1  UNL1        0.0692
     27 C          65.9081   93.2684   10.5154 C.3     1  UNL1        0.0230
     28 C          67.0566   92.4031   10.0884 C.3     1  UNL1        0.0431
     29 O          68.5934   94.4010    9.4590 O.co2   1  UNL1       -0.5492
     30 C          68.1600   92.9801    9.2520 C.2     1  UNL1        0.0504
     31 O          68.8299   92.1361    8.2086 O.co2   1  UNL1       -0.5492
     32 C          64.1220   84.9581   13.7365 C.3     1  UNL1        0.1417
     33 C          63.5148   83.5992   13.5509 C.ar    1  UNL1        0.0555
     34 C          62.5308   83.0740   14.5539 C.ar    1  UNL1        0.1401
     35 F          62.1540   83.9078   15.7425 F       1  UNL1       -0.2044
     36 C          61.9235   81.7150   14.3682 C.ar    1  UNL1        0.0295
     37 C          62.3003   80.8812   13.1796 C.ar    1  UNL1        0.0046
     38 C          63.2843   81.4063   12.1766 C.ar    1  UNL1        0.0295
     39 C          63.8916   82.7653   12.3623 C.ar    1  UNL1        0.1401
     40 F          64.8756   83.2905   11.3593 F       1  UNL1       -0.2044
@<TRIPOS>UNITY_ATOM_ATTR
29 1
charge -1
@<TRIPOS>BOND
     1    29    30   ar
     2    30    31   ar
     3    30    28    1
     4    28    27    1
     5    27    26    1
     6    26    24    1
     7    24    17    1
     8    17    16    1
     9    16     1    1
    10     1     2   ar
    11     2     3    2
    12     2     4   ar
    13     4     9    1
    14     9    10   ar
    15    10    11   ar
    16    11    12   ar
    17    12    13   ar
    18    13    14   ar
    19    14    15    1
    20     4     5   ar
    21     5     6   ar
    22     6    32    1
    23    32    33    1
    24    33    34   ar
    25    34    35    1
    26    34    36   ar
    27    36    37   ar
    28    37    38   ar
    29    38    39   ar
    30    39    40    1
    31     6     7   ar
    32     7     8    2
    33    17    18    1
    34    18    19   ar
    35    19    20   ar
    36    20    21   ar
    37    21    22   ar
    38    22    23   ar
    39     7     1   ar
    40    23    18   ar
    41    14     9   ar
    42    39    33   ar
    43    24    25    1
@<TRIPOS>MOLECULE
*****
 40 43 0 0 0
SMALL
GASTEIGER

@<TRIPOS>ATOM
      1 N          63.4656   86.5372   12.9567 N.ar    1  UNL1       -0.2470
      2 C          62.6291   86.2217   11.7523 C.ar    1  UNL1        0.2657
      3 O          62.4028   84.7947   11.3492 O.2     1  UNL1       -0.2668
      4 C          62.0188   87.3332   10.9511 C.ar    1  UNL1        0.0744
      5 C          62.2451   88.7602   11.3542 C.ar    1  UNL1        0.0848
      6 N          63.0817   89.0757   12.5586 N.ar    1  UNL1       -0.2754
      7 C          63.6919   87.9642   13.3598 C.ar    1  UNL1        0.3341
      8 O          64.5286   88.2796   14.5643 O.2     1  UNL1       -0.2462
      9 C          61.1822   87.0177    9.7466 C.ar    1  UNL1        0.0166
     10 C          59.7586   87.4856    9.6789 C.ar    1  UNL1        0.0010
     11 C          58.9220   87.1702    8.4745 C.ar    1  UNL1        0.0001
     12 C          59.5090   86.3869    7.3378 C.ar    1  UNL1        0.0009
     13 C          60.9326   85.9191    7.4055 C.ar    1  UNL1        0.0114
     14 C          61.7692   86.2345    8.6100 C.ar    1  UNL1        0.0578
     15 CL         63.1927   85.7667    8.6777 Cl      1  UNL1       -0.0822
     16 C          64.0760   85.4256   13.7581 C.3     1  UNL1        0.1337
     17 C          63.1969   84.4908   14.5348 C.3     1  UNL1        0.1000
     18 C          62.9601   83.0959   14.0364 C.ar    1  UNL1       -0.0061
     19 C          61.7682   82.3209   14.5145 C.ar    1  UNL1       -0.0029
     20 C          61.5314   80.9261   14.0161 C.ar    1  UNL1       -0.0003
     21 C          62.4866   80.3064   13.0395 C.ar    1  UNL1       -0.0000
     22 C          63.6785   81.0814   12.5614 C.ar    1  UNL1       -0.0003
     23 C          63.9152   82.4762   13.0599 C.ar    1  UNL1       -0.0029
     24 N          62.5547   84.9507   15.8099 N.3     1  UNL1       -0.2935
     25 H          61.6816   85.4101   15.5509 H       1  UNL1        0.1236
     26 C          63.2856   85.8922   16.7207 C.3     1  UNL1        0.0692
     27 C          62.5430   87.0009   17.4058 C.3     1  UNL1        0.0230
     28 C          63.1741   88.3550   17.5407 C.3     1  UNL1        0.0431
     29 O          63.4083   90.8106   16.7254 O.co2   1  UNL1       -0.5492
     30 C          62.6815   89.4987   16.7044 C.2     1  UNL1        0.0504
     31 O          61.4623   89.3304   15.8471 O.co2   1  UNL1       -0.5492
     32 C          63.3080   90.5027   12.9617 C.3     1  UNL1        0.1417
     33 C          64.4826   91.2590   12.4156 C.ar    1  UNL1        0.0555
     34 C          64.4427   91.7980   11.0163 C.ar    1  UNL1        0.1401
     35 F          63.2283   91.5806   10.1631 F       1  UNL1       -0.2044
     36 C          65.6173   92.5544   10.4702 C.ar    1  UNL1        0.0295
     37 C          66.8317   92.7718   11.3234 C.ar    1  UNL1        0.0046
     38 C          66.8716   92.2329   12.7226 C.ar    1  UNL1        0.0295
     39 C          65.6970   91.4764   13.2688 C.ar    1  UNL1        0.1401
     40 F          65.7368   90.9375   14.6680 F       1  UNL1       -0.2044
@<TRIPOS>UNITY_ATOM_ATTR
29 1
charge -1
@<TRIPOS>BOND
     1    29    30   ar
     2    30    31   ar
     3    30    28    1
     4    28    27    1
     5    27    26    1
     6    26    24    1
     7    24    17    1
     8    17    16    1
     9    16     1    1
    10     1     2   ar
    11     2     3    2
    12     2     4   ar
    13     4     9    1
    14     9    10   ar
    15    10    11   ar
    16    11    12   ar
    17    12    13   ar
    18    13    14   ar
    19    14    15    1
    20     4     5   ar
    21     5     6   ar
    22     6    32    1
    23    32    33    1
    24    33    34   ar
    25    34    35    1
    26    34    36   ar
    27    36    37   ar
    28    37    38   ar
    29    38    39   ar
    30    39    40    1
    31     6     7   ar
    32     7     8    2
    33    17    18    1
    34    18    19   ar
    35    19    20   ar
    36    20    21   ar
    37    21    22   ar
    38    22    23   ar
    39     7     1   ar
    40    23    18   ar
    41    14     9   ar
    42    39    33   ar
    43    24    25    1
@<TRIPOS>MOLECULE
*****
 40 43 0 0 0
SMALL
GASTEIGER

@<TRIPOS>ATOM
      1 N          63.4684   86.5268   12.9476 N.ar    1  UNL1       -0.2470
      2 C          62.6348   86.2062   11.7425 C.ar    1  UNL1        0.2657
      3 O          62.4158   84.7777   11.3405 O.2     1  UNL1       -0.2668
      4 C          62.0203   87.3140   10.9394 C.ar    1  UNL1        0.0744
      5 C          62.2393   88.7424   11.3414 C.ar    1  UNL1        0.0848
      6 N          63.0729   89.0630   12.5465 N.ar    1  UNL1       -0.2754
      7 C          63.6875   87.9552   13.3496 C.ar    1  UNL1        0.3341
      8 O          64.5211   88.2758   14.5547 O.2     1  UNL1       -0.2462
      9 C          61.1866   86.9934    9.7343 C.ar    1  UNL1        0.0166
     10 C          59.7603   87.4526    9.6653 C.ar    1  UNL1        0.0010
     11 C          58.9266   87.1320    8.4602 C.ar    1  UNL1        0.0001
     12 C          59.5193   86.3523    7.3240 C.ar    1  UNL1        0.0009
     13 C          60.9456   85.8931    7.3930 C.ar    1  UNL1        0.0114
     14 C          61.7793   86.2137    8.5982 C.ar    1  UNL1        0.0578
     15 CL         63.2056   85.7545    8.6672 Cl      1  UNL1       -0.0822
     16 C          64.0830   85.4189   13.7508 C.3     1  UNL1        0.1337
     17 C          63.2076   84.4817   14.5287 C.3     1  UNL1        0.1000
     18 C          62.9693   83.0880   14.0277 C.ar    1  UNL1       -0.0061
     19 C          61.7771   82.3130   14.5051 C.ar    1  UNL1       -0.0029
     20 C          61.5389   80.9194   14.0041 C.ar    1  UNL1       -0.0003
     21 C          62.4929   80.3008   13.0257 C.ar    1  UNL1       -0.0000
     22 C          63.6852   81.0758   12.5484 C.ar    1  UNL1       -0.0003
     23 C          63.9234   82.4694   13.0494 C.ar    1  UNL1       -0.0029
     24 N          62.5704   84.9382   15.8076 N.3     1  UNL1       -0.2935
     25 H          61.6875   85.3820   15.5547 H       1  UNL1        0.1236
     26 C          63.2948   85.8961   16.7063 C.3     1  UNL1        0.0692
     27 C          62.5419   86.9995   17.3889 C.3     1  UNL1        0.0230
     28 C          63.1691   88.3536   17.5400 C.3     1  UNL1        0.0431
     29 O          63.4047   90.8170   16.7488 O.co2   1  UNL1       -0.5492
     30 C          62.6845   89.5020   16.7055 C.2     1  UNL1        0.0504
     31 O          61.4796   89.3353   15.8277 O.co2   1  UNL1       -0.5492
     32 C          63.2920   90.4915   12.9485 C.3     1  UNL1        0.1417
     33 C          64.4689   91.2500   12.4105 C.ar    1  UNL1        0.0555
     34 C          65.6771   91.4696   13.2720 C.ar    1  UNL1        0.1401
     35 F          65.7082   90.9307   14.6715 F       1  UNL1       -0.2044
     36 C          66.8540   92.2281   12.7340 C.ar    1  UNL1        0.0295
     37 C          66.8228   92.7670   11.3345 C.ar    1  UNL1        0.0046
     38 C          65.6147   92.5474   10.4730 C.ar    1  UNL1        0.0295
     39 C          64.4377   91.7889   11.0110 C.ar    1  UNL1        0.1401
     40 F          63.2296   91.5693   10.1495 F       1  UNL1       -0.2044
@<TRIPOS>UNITY_ATOM_ATTR
29 1
charge -1
@<TRIPOS>BOND
     1    29    30   ar
     2    30    31   ar
     3    30    28    1
     4    28    27    1
     5    27    26    1
     6    26    24    1
     7    24    17    1
     8    17    16    1
     9    16     1    1
    10     1     2   ar
    11     2     3    2
    12     2     4   ar
    13     4     9    1
    14     9    10   ar
    15    10    11   ar
    16    11    12   ar
    17    12    13   ar
    18    13    14   ar
    19    14    15    1
    20     4     5   ar
    21     5     6   ar
    22     6    32    1
    23    32    33    1
    24    33    34   ar
    25    34    35    1
    26    34    36   ar
    27    36    37   ar
    28    37    38   ar
    29    38    39   ar
    30    39    40    1
    31     6     7   ar
    32     7     8    2
    33    17    18    1
    34    18    19   ar
    35    19    20   ar
    36    20    21   ar
    37    21    22   ar
    38    22    23   ar
    39     7     1   ar
    40    23    18   ar
    41    14     9   ar
    42    39    33   ar
    43    24    25    1
@<TRIPOS>MOLECULE
*****
 40 43 0 0 0
SMALL
GASTEIGER

@<TRIPOS>ATOM
      1 N          63.4805   88.9671   12.3158 N.ar    1  UNL1       -0.2470
      2 C          62.5842   88.6838   11.1469 C.ar    1  UNL1        0.2657
      3 O          62.1947   89.7923   10.2144 O.2     1  UNL1       -0.2668
      4 C          62.0774   87.2920   10.9104 C.ar    1  UNL1        0.0744
      5 C          62.4669   86.1835   11.8429 C.ar    1  UNL1        0.0848
      6 N          63.3632   86.4668   13.0118 N.ar    1  UNL1       -0.2754
      7 C          63.8700   87.8586   13.2482 C.ar    1  UNL1        0.3341
      8 O          64.7663   88.1420   14.4172 O.2     1  UNL1       -0.2462
      9 C          61.1811   87.0086    9.7415 C.ar    1  UNL1        0.0166
     10 C          59.8107   87.6158    9.6827 C.ar    1  UNL1        0.0010
     11 C          58.9144   87.3325    8.5138 C.ar    1  UNL1        0.0001
     12 C          59.3884   86.4419    7.4037 C.ar    1  UNL1        0.0009
     13 C          60.7588   85.8348    7.4625 C.ar    1  UNL1        0.0114
     14 C          61.6551   86.1182    8.6314 C.ar    1  UNL1        0.0578
     15 CL         63.0255   85.5110    8.6902 Cl      1  UNL1       -0.0822
     16 C          63.9874   90.3590   12.5523 C.3     1  UNL1        0.1337
     17 C          64.1602   90.8663   13.9532 C.3     1  UNL1        0.1000
     18 C          65.4595   91.4893   14.3703 C.ar    1  UNL1       -0.0061
     19 C          65.5836   92.1328   15.7196 C.ar    1  UNL1       -0.0029
     20 C          66.8828   92.7557   16.1366 C.ar    1  UNL1       -0.0003
     21 C          68.0578   92.7352   15.2045 C.ar    1  UNL1       -0.0000
     22 C          67.9337   92.0917   13.8552 C.ar    1  UNL1       -0.0003
     23 C          66.6345   91.4688   13.4382 C.ar    1  UNL1       -0.0029
     24 N          63.0339   90.7507   14.9371 N.3     1  UNL1       -0.2935
     25 H          62.6699   91.6927   15.0801 H       1  UNL1        0.1236
     26 C          63.2835   90.1717   16.2982 C.3     1  UNL1        0.0692
     27 C          62.4319   89.0439   16.8012 C.3     1  UNL1        0.0230
     28 C          63.0504   87.9360   17.6010 C.3     1  UNL1        0.0431
     29 O          61.2250   86.1371   17.1747 O.co2   1  UNL1       -0.5492
     30 C          62.6695   86.5110   17.3283 C.2     1  UNL1        0.0504
     31 O          63.7330   85.4600   17.2092 O.co2   1  UNL1       -0.5492
     32 C          63.7527   85.3583   13.9443 C.3     1  UNL1        0.1417
     33 C          63.3658   83.9434   13.6304 C.ar    1  UNL1        0.0555
     34 C          63.9713   83.2448   12.4491 C.ar    1  UNL1        0.1401
     35 F          64.9637   83.9610   11.5818 F       1  UNL1       -0.2044
     36 C          63.5845   81.8300   12.1353 C.ar    1  UNL1        0.0295
     37 C          62.5921   81.1137   13.0026 C.ar    1  UNL1        0.0046
     38 C          61.9866   81.8123   14.1838 C.ar    1  UNL1        0.0295
     39 C          62.3735   83.2272   14.4977 C.ar    1  UNL1        0.1401
     40 F          61.7680   83.9258   15.6789 F       1  UNL1       -0.2044
@<TRIPOS>UNITY_ATOM_ATTR
29 1
charge -1
@<TRIPOS>BOND
     1    29    30   ar
     2    30    31   ar
     3    30    28    1
     4    28    27    1
     5    27    26    1
     6    26    24    1
     7    24    17    1
     8    17    16    1
     9    16     1    1
    10     1     2   ar
    11     2     3    2
    12     2     4   ar
    13     4     9    1
    14     9    10   ar
    15    10    11   ar
    16    11    12   ar
    17    12    13   ar
    18    13    14   ar
    19    14    15    1
    20     4     5   ar
    21     5     6   ar
    22     6    32    1
    23    32    33    1
    24    33    34   ar
    25    34    35    1
    26    34    36   ar
    27    36    37   ar
    28    37    38   ar
    29    38    39   ar
    30    39    40    1
    31     6     7   ar
    32     7     8    2
    33    17    18    1
    34    18    19   ar
    35    19    20   ar
    36    20    21   ar
    37    21    22   ar
    38    22    23   ar
    39     7     1   ar
    40    23    18   ar
    41    14     9   ar
    42    39    33   ar
    43    24    25    1
@<TRIPOS>MOLECULE
*****
 40 43 0 0 0
SMALL
GASTEIGER

@<TRIPOS>ATOM
      1 N          62.8235   88.7894   12.8335 N.ar    1  UNL1       -0.2470
      2 C          62.0529   88.5492   11.5692 C.ar    1  UNL1        0.2657
      3 O          61.3729   89.6927   10.8766 O.2     1  UNL1       -0.2668
      4 C          61.9625   87.1654   10.9975 C.ar    1  UNL1        0.0744
      5 C          62.6426   86.0218   11.6902 C.ar    1  UNL1        0.0848
      6 N          63.4131   86.2620   12.9545 N.ar    1  UNL1       -0.2754
      7 C          63.5035   87.6458   13.5262 C.ar    1  UNL1        0.3341
      8 O          64.2741   87.8861   14.7905 O.2     1  UNL1       -0.2462
      9 C          61.1919   86.9251    9.7332 C.ar    1  UNL1        0.0166
     10 C          59.8494   87.5656    9.5399 C.ar    1  UNL1        0.0010
     11 C          59.0789   87.3253    8.2756 C.ar    1  UNL1        0.0001
     12 C          59.6508   86.4445    7.2045 C.ar    1  UNL1        0.0009
     13 C          60.9933   85.8040    7.3978 C.ar    1  UNL1        0.0114
     14 C          61.7639   86.0443    8.6622 C.ar    1  UNL1        0.0578
     15 CL         63.1064   85.4038    8.8555 Cl      1  UNL1       -0.0822
     16 C          62.9140   90.1732   13.4053 C.3     1  UNL1        0.1337
     17 C          64.2518   90.8321   13.5665 C.3     1  UNL1        0.1000
     18 C          64.7937   91.7065   12.4748 C.ar    1  UNL1       -0.0061
     19 C          65.9419   92.6303   12.7541 C.ar    1  UNL1       -0.0029
     20 C          66.4838   93.5046   11.6624 C.ar    1  UNL1       -0.0003
     21 C          65.8773   93.4552   10.2913 C.ar    1  UNL1       -0.0000
     22 C          64.7291   92.5314   10.0120 C.ar    1  UNL1       -0.0003
     23 C          64.1872   91.6571   11.1037 C.ar    1  UNL1       -0.0029
     24 N          65.0478   90.6166   14.8195 N.3     1  UNL1       -0.2935
     25 H          64.7360   89.7309   15.2178 H       1  UNL1        0.1236
     26 C          64.9966   91.6301   15.9242 C.3     1  UNL1        0.0692
     27 C          66.1774   92.5182   16.1826 C.3     1  UNL1        0.0230
     28 C          67.5531   92.0714   15.7853 C.3     1  UNL1        0.0431
     29 O          69.6249   92.7873   14.3907 O.co2   1  UNL1       -0.5492
     30 C          68.6033   93.0876   15.4471 C.2     1  UNL1        0.0504
     31 O          68.6319   94.4041   16.1654 O.co2   1  UNL1       -0.5492
     32 C          64.0932   85.1184   13.6471 C.3     1  UNL1        0.1417
     33 C          63.5358   83.7310   13.5279 C.ar    1  UNL1        0.0555
     34 C          63.9452   82.8541   12.3818 C.ar    1  UNL1        0.1401
     35 F          64.9120   83.3648   11.3549 F       1  UNL1       -0.2044
     36 C          63.3878   81.4667   12.2625 C.ar    1  UNL1        0.0295
     37 C          62.4210   80.9560   13.2894 C.ar    1  UNL1        0.0046
     38 C          62.0115   81.8328   14.4355 C.ar    1  UNL1        0.0295
     39 C          62.5689   83.2203   14.5548 C.ar    1  UNL1        0.1401
     40 F          62.1595   84.0971   15.7009 F       1  UNL1       -0.2044
@<TRIPOS>UNITY_ATOM_ATTR
29 1
charge -1
@<TRIPOS>BOND
     1    29    30   ar
     2    30    31   ar
     3    30    28    1
     4    28    27    1
     5    27    26    1
     6    26    24    1
     7    24    17    1
     8    17    16    1
     9    16     1    1
    10     1     2   ar
    11     2     3    2
    12     2     4   ar
    13     4     9    1
    14     9    10   ar
    15    10    11   ar
    16    11    12   ar
    17    12    13   ar
    18    13    14   ar
    19    14    15    1
    20     4     5   ar
    21     5     6   ar
    22     6    32    1
    23    32    33    1
    24    33    34   ar
    25    34    35    1
    26    34    36   ar
    27    36    37   ar
    28    37    38   ar
    29    38    39   ar
    30    39    40    1
    31     6     7   ar
    32     7     8    2
    33    17    18    1
    34    18    19   ar
    35    19    20   ar
    36    20    21   ar
    37    21    22   ar
    38    22    23   ar
    39     7     1   ar
    40    23    18   ar
    41    14     9   ar
    42    39    33   ar
    43    24    25    1
@<TRIPOS>MOLECULE
*****
 40 43 0 0 0
SMALL
GASTEIGER

@<TRIPOS>ATOM
      1 N          61.9418   87.2233   11.9090 N.ar    1  UNL1       -0.2470
      2 C          62.4485   88.4745   12.5629 C.ar    1  UNL1        0.2657
      3 O          61.8097   89.7953   12.2510 O.2     1  UNL1       -0.2668
      4 C          63.5939   88.4048   13.5289 C.ar    1  UNL1        0.0744
      5 C          64.2327   87.0840   13.8409 C.ar    1  UNL1        0.0848
      6 N          63.7260   85.8328   13.1869 N.ar    1  UNL1       -0.2754
      7 C          62.5805   85.9024   12.2210 C.ar    1  UNL1        0.3341
      8 O          62.0738   84.6512   11.5670 O.2     1  UNL1       -0.2462
      9 C          64.1007   89.6561   14.1829 C.ar    1  UNL1        0.0166
     10 C          65.0388   90.5624   13.4422 C.ar    1  UNL1        0.0010
     11 C          65.5456   91.8135   14.0961 C.ar    1  UNL1        0.0001
     12 C          65.1142   92.1585   15.4908 C.ar    1  UNL1        0.0009
     13 C          64.1760   91.2523   16.2314 C.ar    1  UNL1        0.0114
     14 C          63.6693   90.0010   15.5774 C.ar    1  UNL1        0.0578
     15 CL         62.7311   89.0948   16.3181 Cl      1  UNL1       -0.0822
     16 C          60.7963   87.2929   10.9430 C.3     1  UNL1        0.1337
     17 C          61.0503   87.6160    9.5005 C.3     1  UNL1        0.1000
     18 C          61.4102   86.5223    8.5390 C.ar    1  UNL1       -0.0061
     19 C          60.3815   85.9955    7.5829 C.ar    1  UNL1       -0.0029
     20 C          60.7415   84.9019    6.6215 C.ar    1  UNL1       -0.0003
     21 C          62.1302   84.3350    6.6162 C.ar    1  UNL1       -0.0000
     22 C          63.1589   84.8617    7.5724 C.ar    1  UNL1       -0.0003
     23 C          62.7989   85.9553    8.5337 C.ar    1  UNL1       -0.0029
     24 N          60.9443   89.0327    9.0193 N.3     1  UNL1       -0.2935
     25 H          61.1353   89.6316    9.8226 H       1  UNL1        0.1236
     26 C          59.6656   89.5234    8.4076 C.3     1  UNL1        0.0692
     27 C          59.3497   89.2078    6.9756 C.3     1  UNL1        0.0230
     28 C          59.6744   90.2009    5.8994 C.3     1  UNL1        0.0431
     29 O          57.1707   90.8056    5.5597 O.co2   1  UNL1       -0.5492
     30 C          58.6224   91.1551    5.4172 C.2     1  UNL1        0.0504
     31 O          59.0220   92.4589    4.7923 O.co2   1  UNL1       -0.5492
     32 C          64.3647   84.5119   13.4989 C.3     1  UNL1        0.1417
     33 C          63.5493   83.2539   13.4483 C.ar    1  UNL1        0.0555
     34 C          62.5010   82.9973   14.4900 C.ar    1  UNL1        0.1401
     35 F          62.2680   83.9986   15.5823 F       1  UNL1       -0.2044
     36 C          61.6856   81.7393   14.4394 C.ar    1  UNL1        0.0295
     37 C          61.9185   80.7379   13.3472 C.ar    1  UNL1        0.0046
     38 C          62.9668   80.9945   12.3055 C.ar    1  UNL1        0.0295
     39 C          63.7823   82.2526   12.3561 C.ar    1  UNL1        0.1401
     40 F          64.8306   82.5092   11.3144 F       1  UNL1       -0.2044
@<TRIPOS>UNITY_ATOM_ATTR
29 1
charge -1
@<TRIPOS>BOND
     1    29    30   ar
     2    30    31   ar
     3    30    28    1
     4    28    27    1
     5    27    26    1
     6    26    24    1
     7    24    17    1
     8    17    16    1
     9    16     1    1
    10     1     2   ar
    11     2     3    2
    12     2     4   ar
    13     4     9    1
    14     9    10   ar
    15    10    11   ar
    16    11    12   ar
    17    12    13   ar
    18    13    14   ar
    19    14    15    1
    20     4     5   ar
    21     5     6   ar
    22     6    32    1
    23    32    33    1
    24    33    34   ar
    25    34    35    1
    26    34    36   ar
    27    36    37   ar
    28    37    38   ar
    29    38    39   ar
    30    39    40    1
    31     6     7   ar
    32     7     8    2
    33    17    18    1
    34    18    19   ar
    35    19    20   ar
    36    20    21   ar
    37    21    22   ar
    38    22    23   ar
    39     7     1   ar
    40    23    18   ar
    41    14     9   ar
    42    39    33   ar
    43    24    25    1
@<TRIPOS>MOLECULE
*****
 40 43 0 0 0
SMALL
GASTEIGER

@<TRIPOS>ATOM
      1 N          63.1562   88.9048   12.5846 N.ar    1  UNL1       -0.2470
      2 C          62.5023   88.5238   11.2896 C.ar    1  UNL1        0.2657
      3 O          61.9875   89.5889   10.3674 O.2     1  UNL1       -0.2668
      4 C          62.3634   87.0776   10.9167 C.ar    1  UNL1        0.0744
      5 C          62.8782   86.0124   11.8388 C.ar    1  UNL1        0.0848
      6 N          63.5321   86.3935   13.1339 N.ar    1  UNL1       -0.2754
      7 C          63.6710   87.8397   13.5068 C.ar    1  UNL1        0.3341
      8 O          64.3249   88.2208   14.8019 O.2     1  UNL1       -0.2462
      9 C          61.7095   86.6964    9.6215 C.ar    1  UNL1        0.0166
     10 C          62.4753   85.9133    8.5967 C.ar    1  UNL1        0.0010
     11 C          61.8215   85.5321    7.3017 C.ar    1  UNL1        0.0001
     12 C          60.4018   85.9342    7.0313 C.ar    1  UNL1        0.0009
     13 C          59.6360   86.7174    8.0561 C.ar    1  UNL1        0.0114
     14 C          60.2899   87.0985    9.3513 C.ar    1  UNL1        0.0578
     15 CL         59.5241   87.8817   10.3761 Cl      1  UNL1       -0.0822
     16 C          63.2952   90.3511   12.9576 C.3     1  UNL1        0.1337
     17 C          64.5851   91.0716   12.6992 C.3     1  UNL1        0.1000
     18 C          65.4106   91.5678   13.8493 C.ar    1  UNL1       -0.0061
     19 C          64.7628   91.8419   15.1742 C.ar    1  UNL1       -0.0029
     20 C          65.5883   92.3379   16.3242 C.ar    1  UNL1       -0.0003
     21 C          67.0614   92.5599   16.1493 C.ar    1  UNL1       -0.0000
     22 C          67.7091   92.2858   14.8245 C.ar    1  UNL1       -0.0003
     23 C          66.8837   91.7897   13.6745 C.ar    1  UNL1       -0.0029
     24 N          65.0497   91.2961   11.2908 N.3     1  UNL1       -0.2935
     25 H          66.0655   91.3821   11.3259 H       1  UNL1        0.1236
     26 C          64.5422   92.4736   10.5123 C.3     1  UNL1        0.0692
     27 C          65.4708   93.5990   10.1640 C.3     1  UNL1        0.0230
     28 C          66.1690   94.3594   11.2523 C.3     1  UNL1        0.0431
     29 O          67.4447   96.2234    9.9686 O.co2   1  UNL1       -0.5492
     30 C          66.5022   95.8091   11.0594 C.2     1  UNL1        0.0504
     31 O          65.8928   96.8446   11.9573 O.co2   1  UNL1       -0.5492
     32 C          64.0469   85.3283   14.0560 C.3     1  UNL1        0.1417
     33 C          63.5552   83.9177   13.9212 C.ar    1  UNL1        0.0555
     34 C          64.1155   83.0270   12.8521 C.ar    1  UNL1        0.1401
     35 F          65.1676   83.5471   11.9179 F       1  UNL1       -0.2044
     36 C          63.6238   81.6164   12.7172 C.ar    1  UNL1        0.0295
     37 C          62.5717   81.0963   13.6514 C.ar    1  UNL1        0.0046
     38 C          62.0114   81.9869   14.7204 C.ar    1  UNL1        0.0295
     39 C          62.5031   83.3976   14.8553 C.ar    1  UNL1        0.1401
     40 F          61.9428   84.2882   15.9243 F       1  UNL1       -0.2044
@<TRIPOS>UNITY_ATOM_ATTR
29 1
charge -1
@<TRIPOS>BOND
     1    29    30   ar
     2    30    31   ar
     3    30    28    1
     4    28    27    1
     5    27    26    1
     6    26    24    1
     7    24    17    1
     8    17    16    1
     9    16     1    1
    10     1     2   ar
    11     2     3    2
    12     2     4   ar
    13     4     9    1
    14     9    10   ar
    15    10    11   ar
    16    11    12   ar
    17    12    13   ar
    18    13    14   ar
    19    14    15    1
    20     4     5   ar
    21     5     6   ar
    22     6    32    1
    23    32    33    1
    24    33    34   ar
    25    34    35    1
    26    34    36   ar
    27    36    37   ar
    28    37    38   ar
    29    38    39   ar
    30    39    40    1
    31     6     7   ar
    32     7     8    2
    33    17    18    1
    34    18    19   ar
    35    19    20   ar
    36    20    21   ar
    37    21    22   ar
    38    22    23   ar
    39     7     1   ar
    40    23    18   ar
    41    14     9   ar
    42    39    33   ar
    43    24    25    1
@<TRIPOS>MOLECULE
*****
 40 43 0 0 0
SMALL
GASTEIGER

@<TRIPOS>ATOM
      1 N          63.7449   87.4211   13.2332 N.ar    1  UNL1       -0.2470
      2 C          63.6960   85.9644   13.5877 C.ar    1  UNL1        0.2657
      3 O          64.4083   85.4656   14.8099 O.2     1  UNL1       -0.2668
      4 C          62.9348   85.0066   12.7199 C.ar    1  UNL1        0.0744
      5 C          62.2224   85.5054   11.4977 C.ar    1  UNL1        0.0848
      6 N          62.2713   86.9620   11.1433 N.ar    1  UNL1       -0.2754
      7 C          63.0326   87.9199   12.0110 C.ar    1  UNL1        0.3341
      8 O          63.0815   89.3766   11.6566 O.2     1  UNL1       -0.2462
      9 C          62.8858   83.5498   13.0744 C.ar    1  UNL1        0.0166
     10 C          62.0003   83.0786   14.1896 C.ar    1  UNL1        0.0010
     11 C          61.9513   81.6220   14.5441 C.ar    1  UNL1        0.0001
     12 C          62.7879   80.6364   13.7833 C.ar    1  UNL1        0.0009
     13 C          63.6735   81.1075   12.6680 C.ar    1  UNL1        0.0114
     14 C          63.7224   82.5643   12.3136 C.ar    1  UNL1        0.0578
     15 CL         64.6080   83.0355   11.1983 Cl      1  UNL1       -0.0822
     16 C          64.5061   88.3790   14.1010 C.3     1  UNL1        0.1337
     17 C          63.9300   89.7282   14.4135 C.3     1  UNL1        0.1000
     18 C          64.7543   90.9633   14.2008 C.ar    1  UNL1       -0.0061
     19 C          65.4583   91.6040   15.3600 C.ar    1  UNL1       -0.0029
     20 C          66.2825   92.8390   15.1473 C.ar    1  UNL1       -0.0003
     21 C          66.4027   93.4334   13.7753 C.ar    1  UNL1       -0.0000
     22 C          65.6986   92.7927   12.6161 C.ar    1  UNL1       -0.0003
     23 C          64.8744   91.5577   12.8288 C.ar    1  UNL1       -0.0029
     24 N          62.5296   89.8423   14.9387 N.3     1  UNL1       -0.2935
     25 H          62.3095   90.8376   14.9765 H       1  UNL1        0.1236
     26 C          62.1834   89.2709   16.2817 C.3     1  UNL1        0.0692
     27 C          63.2046   88.4830   17.0474 C.3     1  UNL1        0.0230
     28 C          62.7745   87.3266   17.9005 C.3     1  UNL1        0.0431
     29 O          62.7970   84.8300   17.1819 O.co2   1  UNL1       -0.5492
     30 C          62.0878   86.1484   17.2758 C.2     1  UNL1        0.0504
     31 O          60.6919   86.2885   16.7451 O.co2   1  UNL1       -0.5492
     32 C          61.5590   87.4608    9.9210 C.3     1  UNL1        0.1417
     33 C          61.3492   86.5473    8.7500 C.ar    1  UNL1        0.0555
     34 C          59.9821   86.3977    8.1509 C.ar    1  UNL1        0.1401
     35 F          58.8249   87.1617    8.7229 F       1  UNL1       -0.2044
     36 C          59.7723   85.4842    6.9799 C.ar    1  UNL1        0.0295
     37 C          60.9295   84.7202    6.4079 C.ar    1  UNL1        0.0046
     38 C          62.2965   84.8697    7.0069 C.ar    1  UNL1        0.0295
     39 C          62.5064   85.7833    8.1780 C.ar    1  UNL1        0.1401
     40 F          63.8734   85.9329    8.7770 F       1  UNL1       -0.2044
@<TRIPOS>UNITY_ATOM_ATTR
29 1
charge -1
@<TRIPOS>BOND
     1    29    30   ar
     2    30    31   ar
     3    30    28    1
     4    28    27    1
     5    27    26    1
     6    26    24    1
     7    24    17    1
     8    17    16    1
     9    16     1    1
    10     1     2   ar
    11     2     3    2
    12     2     4   ar
    13     4     9    1
    14     9    10   ar
    15    10    11   ar
    16    11    12   ar
    17    12    13   ar
    18    13    14   ar
    19    14    15    1
    20     4     5   ar
    21     5     6   ar
    22     6    32    1
    23    32    33    1
    24    33    34   ar
    25    34    35    1
    26    34    36   ar
    27    36    37   ar
    28    37    38   ar
    29    38    39   ar
    30    39    40    1
    31     6     7   ar
    32     7     8    2
    33    17    18    1
    34    18    19   ar
    35    19    20   ar
    36    20    21   ar
    37    21    22   ar
    38    22    23   ar
    39     7     1   ar
    40    23    18   ar
    41    14     9   ar
    42    39    33   ar
    43    24    25    1
@<TRIPOS>MOLECULE
*****
 40 43 0 0 0
SMALL
GASTEIGER

@<TRIPOS>ATOM
      1 N          63.5302   89.8291   11.4633 N.ar    1  UNL1       -0.2470
      2 C          63.3893   88.7333   12.4779 C.ar    1  UNL1        0.2657
      3 O          62.7151   87.4467   12.1035 O.2     1  UNL1       -0.2668
      4 C          63.9225   88.9242   13.8668 C.ar    1  UNL1        0.0744
      5 C          64.5967   90.2107   14.2411 C.ar    1  UNL1        0.0848
      6 N          64.7377   91.3065   13.2266 N.ar    1  UNL1       -0.2754
      7 C          64.2044   91.1157   11.8376 C.ar    1  UNL1        0.3341
      8 O          64.3453   92.2115   10.8230 O.2     1  UNL1       -0.2462
      9 C          63.7816   87.8284   14.8814 C.ar    1  UNL1        0.0166
     10 C          64.2223   86.4344   14.5459 C.ar    1  UNL1        0.0010
     11 C          64.0814   85.3386   15.5605 C.ar    1  UNL1        0.0001
     12 C          63.4998   85.6368   16.9107 C.ar    1  UNL1        0.0009
     13 C          63.0591   87.0308   17.2462 C.ar    1  UNL1        0.0114
     14 C          63.2000   88.1266   16.2315 C.ar    1  UNL1        0.0578
     15 CL         62.7593   89.5206   16.5670 Cl      1  UNL1       -0.0822
     16 C          62.9969   89.6383   10.0743 C.3     1  UNL1        0.1337
     17 C          61.5268   89.7753    9.8099 C.3     1  UNL1        0.1000
     18 C          60.7911   88.6891    9.0825 C.ar    1  UNL1       -0.0061
     19 C          61.1554   87.2524    9.3128 C.ar    1  UNL1       -0.0029
     20 C          60.4197   86.1663    8.5853 C.ar    1  UNL1       -0.0003
     21 C          59.3198   86.5170    7.6276 C.ar    1  UNL1       -0.0000
     22 C          58.9556   87.9537    7.3973 C.ar    1  UNL1       -0.0003
     23 C          59.6912   89.0398    8.1247 C.ar    1  UNL1       -0.0029
     24 N          60.7922   90.9984   10.2730 N.3     1  UNL1       -0.2935
     25 H          61.4962   91.6533   10.6136 H       1  UNL1        0.1236
     26 C          59.7501   90.8860   11.3461 C.3     1  UNL1        0.0692
     27 C          59.7611   89.7143   12.2825 C.3     1  UNL1        0.0230
     28 C          58.6381   88.7203   12.2534 C.3     1  UNL1        0.0431
     29 O          58.4845   88.4448   14.8322 O.co2   1  UNL1       -0.5492
     30 C          57.8211   88.4754   13.4873 C.2     1  UNL1        0.0504
     31 O          56.3407   88.2610   13.3762 O.co2   1  UNL1       -0.5492
     32 C          65.4119   92.5931   13.6009 C.3     1  UNL1        0.1417
     33 C          66.7218   92.5685   14.3312 C.ar    1  UNL1        0.0555
     34 C          67.9949   92.3147   13.5797 C.ar    1  UNL1        0.1401
     35 F          67.9580   92.0854   12.0977 F       1  UNL1       -0.2044
     36 C          69.3049   92.2902   14.3100 C.ar    1  UNL1        0.0295
     37 C          69.3418   92.5195   15.7919 C.ar    1  UNL1        0.0046
     38 C          68.0687   92.7733   16.5435 C.ar    1  UNL1        0.0295
     39 C          66.7587   92.7978   15.8132 C.ar    1  UNL1        0.1401
     40 F          65.4857   93.0517   16.5647 F       1  UNL1       -0.2044
@<TRIPOS>UNITY_ATOM_ATTR
29 1
charge -1
@<TRIPOS>BOND
     1    29    30   ar
     2    30    31   ar
     3    30    28    1
     4    28    27    1
     5    27    26    1
     6    26    24    1
     7    24    17    1
     8    17    16    1
     9    16     1    1
    10     1     2   ar
    11     2     3    2
    12     2     4   ar
    13     4     9    1
    14     9    10   ar
    15    10    11   ar
    16    11    12   ar
    17    12    13   ar
    18    13    14   ar
    19    14    15    1
    20     4     5   ar
    21     5     6   ar
    22     6    32    1
    23    32    33    1
    24    33    34   ar
    25    34    35    1
    26    34    36   ar
    27    36    37   ar
    28    37    38   ar
    29    38    39   ar
    30    39    40    1
    31     6     7   ar
    32     7     8    2
    33    17    18    1
    34    18    19   ar
    35    19    20   ar
    36    20    21   ar
    37    21    22   ar
    38    22    23   ar
    39     7     1   ar
    40    23    18   ar
    41    14     9   ar
    42    39    33   ar
    43    24    25    1
