@<TRIPOS>MOLECULE
*****
 29 32 0 0 0
SMALL
GASTEIGER

@<TRIPOS>ATOM
      1 O          62.4046   89.1172   15.9979 O.2     1  UNL1       -0.2707
      2 C          63.6735   89.6730   15.4226 C.2     1  UNL1        0.2707
      3 N          64.5535   88.8068   14.5711 N.am    1  UNL1       -0.2809
      4 H          65.3863   89.1716   14.1935 H       1  UNL1        0.1550
      5 C          64.1646   87.3847   14.2949 C.ar    1  UNL1        0.0504
      6 C          64.4592   86.3166   15.3061 C.ar    1  UNL1        0.0147
      7 C          64.0704   84.8945   15.0299 C.ar    1  UNL1        0.0013
      8 C          63.3869   84.5404   13.7425 C.ar    1  UNL1        0.0001
      9 C          63.0922   85.6084   12.7313 C.ar    1  UNL1        0.0013
     10 C          63.4811   87.0306   13.0075 C.ar    1  UNL1        0.0147
     11 C          62.9980   83.1183   13.4662 C.ar    1  UNL1        0.0000
     12 C          62.1547   82.3661   14.4528 C.ar    1  UNL1        0.0000
     13 C          61.7659   80.9440   14.1766 C.ar    1  UNL1        0.0000
     14 C          62.2202   80.2740   12.9138 C.ar    1  UNL1        0.0000
     15 C          63.0634   81.0260   11.9272 C.ar    1  UNL1        0.0000
     16 C          63.4523   82.4482   12.2034 C.ar    1  UNL1        0.0000
     17 C          64.0623   91.0952   15.6989 C.3     1  UNL1        0.2897
     18 O          65.4409   91.5761   15.3553 O.3     1  UNL1       -0.4656
     19 C          65.6648   92.3861   14.1127 C.ar    1  UNL1        0.1394
     20 C          65.1223   91.9087   12.7984 C.ar    1  UNL1        0.0384
     21 C          65.3461   92.7187   11.5559 C.ar    1  UNL1        0.0207
     22 C          66.1125   94.0061   11.6278 C.ar    1  UNL1        0.0657
     23 C          66.6550   94.4835   12.9422 C.ar    1  UNL1        0.0207
     24 C          66.4312   93.6735   14.1847 C.ar    1  UNL1        0.0384
     25 N          66.3363   94.8161   10.3853 N.ar    1  UNL1       -0.2864
     26 C          67.3583   94.5373    9.3232 C.ar    1  UNL1        0.1022
     27 C          67.2311   95.5959    8.2682 C.ar    1  UNL1        0.1196
     28 N          66.1306   96.5291    8.6783 N.ar    1  UNL1       -0.2220
     29 C          65.5776   96.0471    9.9867 C.ar    1  UNL1        0.1828
@<TRIPOS>BOND
     1     1     2    2
     2     2    17    1
     3    17    18    1
     4    18    19    1
     5    19    20   ar
     6    20    21   ar
     7    21    22   ar
     8    22    25    1
     9    25    26   ar
    10    26    27   ar
    11    27    28   ar
    12    28    29   ar
    13    22    23   ar
    14    23    24   ar
    15     2     3   am
    16     3     5    1
    17     5     6   ar
    18     6     7   ar
    19     7     8   ar
    20     8    11    1
    21    11    12   ar
    22    12    13   ar
    23    13    14   ar
    24    14    15   ar
    25    15    16   ar
    26     8     9   ar
    27     9    10   ar
    28    24    19   ar
    29    10     5   ar
    30    29    25   ar
    31    16    11   ar
    32     3     4    1
@<TRIPOS>MOLECULE
*****
 29 32 0 0 0
SMALL
GASTEIGER

@<TRIPOS>ATOM
      1 O          60.3996   90.3002   11.7317 O.2     1  UNL1       -0.2707
      2 C          60.8047   90.1662   10.2937 C.2     1  UNL1        0.2707
      3 N          62.2261   90.4209    9.8880 N.am    1  UNL1       -0.2809
      4 H          62.4920   90.3330    8.9442 H       1  UNL1        0.1550
      5 C          63.2425   90.8096   10.9204 C.ar    1  UNL1        0.0504
      6 C          64.2213   91.9093   10.6325 C.ar    1  UNL1        0.0147
      7 C          65.2377   92.2980   11.6649 C.ar    1  UNL1        0.0013
      8 C          65.2753   91.5871   12.9852 C.ar    1  UNL1        0.0001
      9 C          64.2965   90.4875   13.2732 C.ar    1  UNL1        0.0013
     10 C          63.2801   90.0988   12.2407 C.ar    1  UNL1        0.0147
     11 C          66.2916   91.9758   14.0176 C.ar    1  UNL1        0.0000
     12 C          65.8481   92.3719   15.3948 C.ar    1  UNL1        0.0000
     13 C          66.8645   92.7606   16.4272 C.ar    1  UNL1        0.0000
     14 C          68.3243   92.7532   16.0825 C.ar    1  UNL1        0.0000
     15 C          68.7678   92.3571   14.7055 C.ar    1  UNL1        0.0000
     16 C          67.7515   91.9684   13.6730 C.ar    1  UNL1        0.0000
     17 C          59.7883   89.7775    9.2612 C.3     1  UNL1        0.2897
     18 O          59.8353   88.4136    8.6388 O.3     1  UNL1       -0.4656
     19 C          60.6941   87.3425    9.2432 C.ar    1  UNL1        0.1394
     20 C          61.6251   86.5488    8.3752 C.ar    1  UNL1        0.0384
     21 C          62.4838   85.4778    8.9797 C.ar    1  UNL1        0.0207
     22 C          62.4117   85.2004   10.4520 C.ar    1  UNL1        0.0657
     23 C          61.4807   85.9941   11.3200 C.ar    1  UNL1        0.0207
     24 C          60.6220   87.0651   10.7156 C.ar    1  UNL1        0.0384
     25 N          63.2705   84.1294   11.0564 N.ar    1  UNL1       -0.2864
     26 C          63.4417   83.8588   12.5219 C.ar    1  UNL1        0.1022
     27 C          64.3859   82.7031   12.6727 C.ar    1  UNL1        0.1196
     28 N          64.7982   82.2593   11.3004 N.ar    1  UNL1       -0.2220
     29 C          64.1089   83.1408   10.3015 C.ar    1  UNL1        0.1828
@<TRIPOS>BOND
     1     1     2    2
     2     2    17    1
     3    17    18    1
     4    18    19    1
     5    19    20   ar
     6    20    21   ar
     7    21    22   ar
     8    22    25    1
     9    25    26   ar
    10    26    27   ar
    11    27    28   ar
    12    28    29   ar
    13    22    23   ar
    14    23    24   ar
    15     2     3   am
    16     3     5    1
    17     5     6   ar
    18     6     7   ar
    19     7     8   ar
    20     8    11    1
    21    11    12   ar
    22    12    13   ar
    23    13    14   ar
    24    14    15   ar
    25    15    16   ar
    26     8     9   ar
    27     9    10   ar
    28    24    19   ar
    29    10     5   ar
    30    29    25   ar
    31    16    11   ar
    32     3     4    1
@<TRIPOS>MOLECULE
*****
 29 32 0 0 0
SMALL
GASTEIGER

@<TRIPOS>ATOM
      1 O          60.3750   90.4195   11.7716 O.2     1  UNL1       -0.2707
      2 C          60.7905   90.1805   10.3503 C.2     1  UNL1        0.2707
      3 N          62.2267   90.3462    9.9507 N.am    1  UNL1       -0.2809
      4 H          62.4994   90.1893    9.0178 H       1  UNL1        0.1550
      5 C          63.2475   90.7510   10.9725 C.ar    1  UNL1        0.0504
      6 C          63.3146   90.0362   12.2896 C.ar    1  UNL1        0.0147
      7 C          64.3354   90.4410   13.3114 C.ar    1  UNL1        0.0013
      8 C          65.2891   91.5605   13.0162 C.ar    1  UNL1        0.0001
      9 C          65.2220   92.2752   11.6991 C.ar    1  UNL1        0.0013
     10 C          64.2012   91.8705   10.6773 C.ar    1  UNL1        0.0147
     11 C          66.3099   91.9652   14.0380 C.ar    1  UNL1        0.0000
     12 C          67.7672   91.9674   13.6823 C.ar    1  UNL1        0.0000
     13 C          68.7879   92.3722   14.7041 C.ar    1  UNL1        0.0000
     14 C          68.3515   92.7748   16.0816 C.ar    1  UNL1        0.0000
     15 C          66.8944   92.7726   16.4373 C.ar    1  UNL1        0.0000
     16 C          65.8735   92.3679   15.4155 C.ar    1  UNL1        0.0000
     17 C          59.7696   89.7757    9.3284 C.3     1  UNL1        0.2897
     18 O          59.8741   88.4412    8.6516 O.3     1  UNL1       -0.4656
     19 C          60.7235   87.3603    9.2519 C.ar    1  UNL1        0.1394
     20 C          60.6658   87.0931   10.7267 C.ar    1  UNL1        0.0384
     21 C          61.5152   86.0122   11.3269 C.ar    1  UNL1        0.0207
     22 C          62.4223   85.1986   10.4522 C.ar    1  UNL1        0.0657
     23 C          62.4801   85.4658    8.9774 C.ar    1  UNL1        0.0207
     24 C          61.6307   86.5466    8.3772 C.ar    1  UNL1        0.0384
     25 N          63.2718   84.1177   11.0524 N.ar    1  UNL1       -0.2864
     26 C          63.3952   83.8026   12.5138 C.ar    1  UNL1        0.1022
     27 C          64.3465   82.6523   12.6613 C.ar    1  UNL1        0.1196
     28 N          64.8111   82.2565   11.2910 N.ar    1  UNL1       -0.2220
     29 C          64.1468   83.1621   10.2967 C.ar    1  UNL1        0.1828
@<TRIPOS>BOND
     1     1     2    2
     2     2    17    1
     3    17    18    1
     4    18    19    1
     5    19    20   ar
     6    20    21   ar
     7    21    22   ar
     8    22    25    1
     9    25    26   ar
    10    26    27   ar
    11    27    28   ar
    12    28    29   ar
    13    22    23   ar
    14    23    24   ar
    15     2     3   am
    16     3     5    1
    17     5     6   ar
    18     6     7   ar
    19     7     8   ar
    20     8    11    1
    21    11    12   ar
    22    12    13   ar
    23    13    14   ar
    24    14    15   ar
    25    15    16   ar
    26     8     9   ar
    27     9    10   ar
    28    24    19   ar
    29    10     5   ar
    30    29    25   ar
    31    16    11   ar
    32     3     4    1
@<TRIPOS>MOLECULE
*****
 29 32 0 0 0
SMALL
GASTEIGER

@<TRIPOS>ATOM
      1 O          63.8734   88.2559   14.2927 O.2     1  UNL1       -0.2707
      2 C          63.6965   89.0234   15.5692 C.2     1  UNL1        0.2707
      3 N          64.1574   90.4481   15.6578 N.am    1  UNL1       -0.2809
      4 H          64.0413   90.9519   16.4956 H       1  UNL1        0.1550
      5 C          64.7951   91.1052   14.4698 C.ar    1  UNL1        0.0504
      6 C          64.0227   91.2589   13.1931 C.ar    1  UNL1        0.0147
      7 C          64.6604   91.9160   12.0051 C.ar    1  UNL1        0.0013
      8 C          66.0706   92.4194   12.0936 C.ar    1  UNL1        0.0001
      9 C          66.8431   92.2658   13.3702 C.ar    1  UNL1        0.0013
     10 C          66.2053   91.6087   14.5583 C.ar    1  UNL1        0.0147
     11 C          66.7084   93.0766   10.9056 C.ar    1  UNL1        0.0000
     12 C          67.7041   92.3217   10.0757 C.ar    1  UNL1        0.0000
     13 C          68.3419   92.9788    8.8877 C.ar    1  UNL1        0.0000
     14 C          67.9840   94.3908    8.5295 C.ar    1  UNL1        0.0000
     15 C          66.9883   95.1456    9.3594 C.ar    1  UNL1        0.0000
     16 C          66.3505   94.4885   10.5475 C.ar    1  UNL1        0.0000
     17 C          63.0587   88.3663   16.7573 C.3     1  UNL1        0.2897
     18 O          63.5007   86.9981   17.1847 O.3     1  UNL1       -0.4656
     19 C          63.3895   85.8429   16.2343 C.ar    1  UNL1        0.1394
     20 C          64.5436   85.4910   15.3433 C.ar    1  UNL1        0.0384
     21 C          64.4324   84.3359   14.3929 C.ar    1  UNL1        0.0207
     22 C          63.1669   83.5327   14.3336 C.ar    1  UNL1        0.0657
     23 C          62.0127   83.8846   15.2246 C.ar    1  UNL1        0.0207
     24 C          62.1240   85.0397   16.1750 C.ar    1  UNL1        0.0384
     25 N          63.0557   82.3775   13.3831 N.ar    1  UNL1       -0.2864
     26 C          63.2873   82.4289   11.9020 C.ar    1  UNL1        0.1022
     27 C          63.0681   81.0514   11.3504 C.ar    1  UNL1        0.1196
     28 N          62.7010   80.1485   12.4907 N.ar    1  UNL1       -0.2220
     29 C          62.6933   80.9681   13.7469 C.ar    1  UNL1        0.1828
@<TRIPOS>BOND
     1     1     2    2
     2     2    17    1
     3    17    18    1
     4    18    19    1
     5    19    20   ar
     6    20    21   ar
     7    21    22   ar
     8    22    25    1
     9    25    26   ar
    10    26    27   ar
    11    27    28   ar
    12    28    29   ar
    13    22    23   ar
    14    23    24   ar
    15     2     3   am
    16     3     5    1
    17     5     6   ar
    18     6     7   ar
    19     7     8   ar
    20     8    11    1
    21    11    12   ar
    22    12    13   ar
    23    13    14   ar
    24    14    15   ar
    25    15    16   ar
    26     8     9   ar
    27     9    10   ar
    28    24    19   ar
    29    10     5   ar
    30    29    25   ar
    31    16    11   ar
    32     3     4    1
@<TRIPOS>MOLECULE
*****
 29 32 0 0 0
SMALL
GASTEIGER

@<TRIPOS>ATOM
      1 O          60.8635   90.4450    5.2933 O.2     1  UNL1       -0.2707
      2 C          59.3804   90.5588    5.4868 C.2     1  UNL1        0.2707
      3 N          58.6913   89.7135    6.5166 N.am    1  UNL1       -0.2809
      4 H          57.7179   89.7882    6.6435 H       1  UNL1        0.1550
      5 C          59.4853   88.7543    7.3529 C.ar    1  UNL1        0.0504
      6 C          60.2812   89.2582    8.5203 C.ar    1  UNL1        0.0147
      7 C          61.0752   88.2990    9.3567 C.ar    1  UNL1        0.0013
      8 C          61.0734   86.8360    9.0257 C.ar    1  UNL1        0.0001
      9 C          60.2775   86.3321    7.8584 C.ar    1  UNL1        0.0013
     10 C          59.4835   87.2913    7.0220 C.ar    1  UNL1        0.0147
     11 C          61.8674   85.8769    9.8620 C.ar    1  UNL1        0.0000
     12 C          61.6717   85.8383   11.3488 C.ar    1  UNL1        0.0000
     13 C          62.4657   84.8791   12.1851 C.ar    1  UNL1        0.0000
     14 C          63.4555   83.9585   11.5348 C.ar    1  UNL1        0.0000
     15 C          63.6512   83.9971   10.0482 C.ar    1  UNL1        0.0000
     16 C          62.8571   84.9563    9.2117 C.ar    1  UNL1        0.0000
     17 C          58.5864   91.5180    4.6504 C.3     1  UNL1        0.2897
     18 O          59.1786   92.8391    4.2581 O.3     1  UNL1       -0.4656
     19 C          59.9347   92.9690    2.9691 C.ar    1  UNL1        0.1394
     20 C          61.4008   92.6550    2.9246 C.ar    1  UNL1        0.0384
     21 C          62.1568   92.7848    1.6356 C.ar    1  UNL1        0.0207
     22 C          61.4468   93.2287    0.3911 C.ar    1  UNL1        0.0657
     23 C          59.9807   93.5427    0.4356 C.ar    1  UNL1        0.0207
     24 C          59.2247   93.4128    1.7245 C.ar    1  UNL1        0.0384
     25 N          62.2029   93.3586   -0.8979 N.ar    1  UNL1       -0.2864
     26 C          61.6393   93.1629   -2.2742 C.ar    1  UNL1        0.1022
     27 C          62.7434   93.3903   -3.2638 C.ar    1  UNL1        0.1196
     28 N          63.9893   93.7265   -2.4991 N.ar    1  UNL1       -0.2220
     29 C          63.6552   93.7069   -1.0370 C.ar    1  UNL1        0.1828
@<TRIPOS>BOND
     1     1     2    2
     2     2    17    1
     3    17    18    1
     4    18    19    1
     5    19    20   ar
     6    20    21   ar
     7    21    22   ar
     8    22    25    1
     9    25    26   ar
    10    26    27   ar
    11    27    28   ar
    12    28    29   ar
    13    22    23   ar
    14    23    24   ar
    15     2     3   am
    16     3     5    1
    17     5     6   ar
    18     6     7   ar
    19     7     8   ar
    20     8    11    1
    21    11    12   ar
    22    12    13   ar
    23    13    14   ar
    24    14    15   ar
    25    15    16   ar
    26     8     9   ar
    27     9    10   ar
    28    24    19   ar
    29    10     5   ar
    30    29    25   ar
    31    16    11   ar
    32     3     4    1
@<TRIPOS>MOLECULE
*****
 29 32 0 0 0
SMALL
GASTEIGER

@<TRIPOS>ATOM
      1 O          61.0052   91.0188    4.7193 O.2     1  UNL1       -0.2707
      2 C          59.5641   91.4348    4.7204 C.2     1  UNL1        0.2707
      3 N          59.0278   92.2844    3.6067 N.am    1  UNL1       -0.2809
      4 H          58.0819   92.5574    3.6074 H       1  UNL1        0.1550
      5 C          59.9327   92.7180    2.4918 C.ar    1  UNL1        0.0504
      6 C          59.3501   93.1671    1.1845 C.ar    1  UNL1        0.0147
      7 C          60.2550   93.6007    0.0696 C.ar    1  UNL1        0.0013
      8 C          61.7426   93.5853    0.2619 C.ar    1  UNL1        0.0001
      9 C          62.3252   93.1363    1.5691 C.ar    1  UNL1        0.0013
     10 C          61.4203   92.7026    2.6841 C.ar    1  UNL1        0.0147
     11 C          62.6475   94.0190   -0.8530 C.ar    1  UNL1        0.0000
     12 C          63.6145   95.1456   -0.6390 C.ar    1  UNL1        0.0000
     13 C          64.5194   95.5792   -1.7539 C.ar    1  UNL1        0.0000
     14 C          64.4574   94.8863   -3.0828 C.ar    1  UNL1        0.0000
     15 C          63.4904   93.7597   -3.2969 C.ar    1  UNL1        0.0000
     16 C          62.5855   93.3260   -2.1819 C.ar    1  UNL1        0.0000
     17 C          58.6591   91.0011    5.8354 C.3     1  UNL1        0.2897
     18 O          58.4887   89.5420    6.1386 O.3     1  UNL1       -0.4656
     19 C          59.2739   88.9101    7.2496 C.ar    1  UNL1        0.1394
     20 C          60.0764   89.7675    8.1828 C.ar    1  UNL1        0.0384
     21 C          60.8615   89.1356    9.2937 C.ar    1  UNL1        0.0207
     22 C          60.8443   87.6462    9.4714 C.ar    1  UNL1        0.0657
     23 C          60.0419   86.7888    8.5382 C.ar    1  UNL1        0.0207
     24 C          59.2567   87.4207    7.4273 C.ar    1  UNL1        0.0384
     25 N          61.6295   87.0143   10.5823 N.ar    1  UNL1       -0.2864
     26 C          61.6904   85.5487   10.8961 C.ar    1  UNL1        0.1022
     27 C          62.5902   85.3656   12.0822 C.ar    1  UNL1        0.1196
     28 N          63.0854   86.7181   12.5015 N.ar    1  UNL1       -0.2220
     29 C          62.4916   87.7370   11.5745 C.ar    1  UNL1        0.1828
@<TRIPOS>BOND
     1     1     2    2
     2     2    17    1
     3    17    18    1
     4    18    19    1
     5    19    20   ar
     6    20    21   ar
     7    21    22   ar
     8    22    25    1
     9    25    26   ar
    10    26    27   ar
    11    27    28   ar
    12    28    29   ar
    13    22    23   ar
    14    23    24   ar
    15     2     3   am
    16     3     5    1
    17     5     6   ar
    18     6     7   ar
    19     7     8   ar
    20     8    11    1
    21    11    12   ar
    22    12    13   ar
    23    13    14   ar
    24    14    15   ar
    25    15    16   ar
    26     8     9   ar
    27     9    10   ar
    28    24    19   ar
    29    10     5   ar
    30    29    25   ar
    31    16    11   ar
    32     3     4    1
@<TRIPOS>MOLECULE
*****
 29 32 0 0 0
SMALL
GASTEIGER

@<TRIPOS>ATOM
      1 O          64.1189   86.9639   14.1623 O.2     1  UNL1       -0.2707
      2 C          63.5364   87.4470   15.4574 C.2     1  UNL1        0.2707
      3 N          63.5452   88.9109   15.7840 N.am    1  UNL1       -0.2809
      4 H          63.1629   89.2279   16.6341 H       1  UNL1        0.1550
      5 C          64.1366   89.8918   14.8155 C.ar    1  UNL1        0.0504
      6 C          63.3872   90.2603   13.5695 C.ar    1  UNL1        0.0147
      7 C          63.9785   91.2412   12.6010 C.ar    1  UNL1        0.0013
      8 C          65.3194   91.8537   12.8785 C.ar    1  UNL1        0.0001
      9 C          66.0688   91.4853   14.1245 C.ar    1  UNL1        0.0013
     10 C          65.4774   90.5044   15.0930 C.ar    1  UNL1        0.0147
     11 C          65.9107   92.8346   11.9100 C.ar    1  UNL1        0.0000
     12 C          66.0863   94.2699   12.3092 C.ar    1  UNL1        0.0000
     13 C          66.6777   95.2508   11.3408 C.ar    1  UNL1        0.0000
     14 C          67.0935   94.7966    9.9730 C.ar    1  UNL1        0.0000
     15 C          66.9180   93.3614    9.5737 C.ar    1  UNL1        0.0000
     16 C          66.3266   92.3804   10.5422 C.ar    1  UNL1        0.0000
     17 C          62.9450   86.4660   16.4259 C.3     1  UNL1        0.2897
     18 O          63.5664   85.1113   16.5948 O.3     1  UNL1       -0.4656
     19 C          63.4207   84.0794   15.5158 C.ar    1  UNL1        0.1394
     20 C          64.5828   83.7580   14.6235 C.ar    1  UNL1        0.0384
     21 C          64.4371   82.7262   13.5446 C.ar    1  UNL1        0.0207
     22 C          63.1292   82.0159   13.3579 C.ar    1  UNL1        0.0657
     23 C          61.9671   82.3373   14.2502 C.ar    1  UNL1        0.0207
     24 C          62.1129   83.3690   15.3291 C.ar    1  UNL1        0.0384
     25 N          62.9835   80.9840   12.2789 N.ar    1  UNL1       -0.2864
     26 C          63.1722   81.2132   10.8086 C.ar    1  UNL1        0.1022
     27 C          62.9288   79.9128   10.1018 C.ar    1  UNL1        0.1196
     28 N          62.5897   78.8798   11.1353 N.ar    1  UNL1       -0.2220
     29 C          62.6235   79.5419   12.4809 C.ar    1  UNL1        0.1828
@<TRIPOS>BOND
     1     1     2    2
     2     2    17    1
     3    17    18    1
     4    18    19    1
     5    19    20   ar
     6    20    21   ar
     7    21    22   ar
     8    22    25    1
     9    25    26   ar
    10    26    27   ar
    11    27    28   ar
    12    28    29   ar
    13    22    23   ar
    14    23    24   ar
    15     2     3   am
    16     3     5    1
    17     5     6   ar
    18     6     7   ar
    19     7     8   ar
    20     8    11    1
    21    11    12   ar
    22    12    13   ar
    23    13    14   ar
    24    14    15   ar
    25    15    16   ar
    26     8     9   ar
    27     9    10   ar
    28    24    19   ar
    29    10     5   ar
    30    29    25   ar
    31    16    11   ar
    32     3     4    1
