@<TRIPOS>MOLECULE
*****
 25 27 0 0 0
SMALL
GASTEIGER

@<TRIPOS>ATOM
      1 C          65.9706   93.8135   11.9642 C.2     1  UNL1        0.3551
      2 N          66.8614   94.4175   13.0090 N.2     1  UNL1        0.0803
      3 N          66.8056   93.5438   14.2271 N.2     1  UNL1       -0.0381
      4 C          65.8804   92.3999   13.9350 C.2     1  UNL1        0.1169
      5 C          65.4411   91.2280   14.7618 C.3     1  UNL1        0.0768
      6 C          64.4858   90.2228   14.1901 C.2     1  UNL1       -0.0098
      7 C          63.9697   90.3895   12.7916 C.2     1  UNL1        0.0313
      8 BR         63.0143   89.3842   12.2199 Br      1  UNL1       -0.0493
      9 C          64.4090   91.5614   11.9647 C.2     1  UNL1        0.0152
     10 C          65.3643   92.5666   12.5364 C.2     1  UNL1        0.1029
     11 C          64.0465   89.0508   15.0170 C.ar    1  UNL1       -0.0029
     12 C          64.4205   87.6585   14.6030 C.ar    1  UNL1        0.0028
     13 C          63.9812   86.4866   15.4299 C.ar    1  UNL1        0.0366
     14 C          63.1679   86.7071   16.6708 C.ar    1  UNL1        0.1337
     15 O          62.7287   85.5353   17.4977 O.3     1  UNL1       -0.5055
     16 C          62.7939   88.0995   17.0848 C.ar    1  UNL1        0.0366
     17 C          63.2332   89.2714   16.2579 C.ar    1  UNL1        0.0028
     18 H          62.9623   84.6655   17.2391 H       1  UNL1        0.2922
     19 C          66.8629   94.4646    9.6126 C.2     1  UNL1        0.3106
     20 O          68.2392   94.0217   10.0122 O.2     1  UNL1       -0.2469
     21 N          65.7286   94.3605   10.5886 N.am    1  UNL1       -0.1678
     22 H          64.8253   94.6512   10.3263 H       1  UNL1        0.3014
     23 C          66.6209   95.0115    8.2370 C.3     1  UNL1        0.1126
     24 C          65.4514   96.8558    6.8295 C.3     1  UNL1        0.0006
     25 C          66.1996   96.4405    8.0614 C.3     1  UNL1        0.0121
@<TRIPOS>BOND
     1    24    25    1
     2    25    23    1
     3    23    19    1
     4    19    20    2
     5    19    21   am
     6    21     1    1
     7     1     2    2
     8     2     3    1
     9     3     4    2
    10     4     5    1
    11     5     6    1
    12     6    11    1
    13    11    12   ar
    14    12    13   ar
    15    13    14   ar
    16    14    15    1
    17    14    16   ar
    18    16    17   ar
    19     6     7    2
    20     7     8    1
    21     7     9    1
    22     9    10    2
    23    10     1    1
    24    10     4    1
    25    17    11   ar
    26    21    22    1
    27    15    18    1
@<TRIPOS>MOLECULE
*****
 25 27 0 0 0
SMALL
GASTEIGER

@<TRIPOS>ATOM
      1 C          63.8414   90.2245   13.6039 C.2     1  UNL1        0.3551
      2 N          63.2040   90.7106   12.3361 N.2     1  UNL1        0.0803
      3 N          62.7741   89.5115   11.5440 N.2     1  UNL1       -0.0381
      4 C          63.1458   88.2843   12.3222 C.2     1  UNL1        0.1169
      5 C          62.9689   86.8225   12.0362 C.3     1  UNL1        0.0768
      6 C          63.4516   85.8013   13.0232 C.2     1  UNL1       -0.0098
      7 C          64.1113   86.2419   14.2962 C.2     1  UNL1        0.0313
      8 BR         64.5940   85.2207   15.2833 Br      1  UNL1       -0.0493
      9 C          64.2882   87.7038   14.5823 C.2     1  UNL1        0.0152
     10 C          63.8055   88.7249   13.5953 C.2     1  UNL1        0.1029
     11 C          63.2747   84.3395   12.7371 C.ar    1  UNL1       -0.0029
     12 C          63.9282   83.7262   11.5343 C.ar    1  UNL1        0.0028
     13 C          63.7512   82.2643   11.2482 C.ar    1  UNL1        0.0366
     14 C          62.9207   81.4159   12.1649 C.ar    1  UNL1        0.1337
     15 O          62.7437   79.9541   11.8789 O.3     1  UNL1       -0.5055
     16 C          62.2672   82.0293   13.3677 C.ar    1  UNL1        0.0366
     17 C          62.4442   83.4911   13.6538 C.ar    1  UNL1        0.0028
     18 H          63.1520   79.5710   11.1275 H       1  UNL1        0.2922
     19 C          65.7263   91.7828   14.4807 C.2     1  UNL1        0.3106
     20 O          66.4656   91.6171   13.1861 O.2     1  UNL1       -0.2469
     21 N          64.4142   91.0865   14.6896 N.am    1  UNL1       -0.1678
     22 H          63.9290   91.1953   15.5393 H       1  UNL1        0.3014
     23 C          66.2991   92.6449   15.5664 C.3     1  UNL1        0.1126
     24 C          68.7787   93.3980   15.7523 C.3     1  UNL1        0.0006
     25 C          67.6965   92.4047   16.0560 C.3     1  UNL1        0.0121
@<TRIPOS>BOND
     1    24    25    1
     2    25    23    1
     3    23    19    1
     4    19    20    2
     5    19    21   am
     6    21     1    1
     7     1     2    2
     8     2     3    1
     9     3     4    2
    10     4     5    1
    11     5     6    1
    12     6    11    1
    13    11    12   ar
    14    12    13   ar
    15    13    14   ar
    16    14    15    1
    17    14    16   ar
    18    16    17   ar
    19     6     7    2
    20     7     8    1
    21     7     9    1
    22     9    10    2
    23    10     1    1
    24    10     4    1
    25    17    11   ar
    26    21    22    1
    27    15    18    1
@<TRIPOS>MOLECULE
*****
 25 27 0 0 0
SMALL
GASTEIGER

@<TRIPOS>ATOM
      1 C          65.2756   92.1880   12.8780 C.2     1  UNL1        0.3551
      2 N          65.4493   93.2725   11.8565 N.2     1  UNL1        0.0803
      3 N          64.6763   92.8835   10.6313 N.2     1  UNL1       -0.0381
      4 C          64.0248   91.5585   10.8956 C.2     1  UNL1        0.1169
      5 C          63.1421   90.6879   10.0513 C.3     1  UNL1        0.0768
      6 C          62.6298   89.3873   10.5956 C.2     1  UNL1       -0.0098
      7 C          63.0002   88.9575   11.9840 C.2     1  UNL1        0.0313
      8 BR         62.4879   87.6569   12.5283 Br      1  UNL1       -0.0493
      9 C          63.8829   89.8282   12.8284 C.2     1  UNL1        0.0152
     10 C          64.3952   91.1287   12.2842 C.2     1  UNL1        0.1029
     11 C          61.7472   88.5167    9.7512 C.ar    1  UNL1       -0.0029
     12 C          62.1485   87.1014    9.4585 C.ar    1  UNL1        0.0028
     13 C          61.2658   86.2307    8.6141 C.ar    1  UNL1        0.0366
     14 C          59.9818   86.7756    8.0624 C.ar    1  UNL1        0.1337
     15 O          59.0991   85.9050    7.2181 O.3     1  UNL1       -0.5055
     16 C          59.5804   88.1909    8.3551 C.ar    1  UNL1        0.0366
     17 C          60.4631   89.0615    9.1995 C.ar    1  UNL1        0.0028
     18 H          59.3498   85.0209    7.0353 H       1  UNL1        0.2922
     19 C          67.3562   91.9863   14.4208 C.2     1  UNL1        0.3106
     20 O          68.2347   91.8276   13.2154 O.2     1  UNL1       -0.2469
     21 N          65.8767   92.1665   14.2522 N.am    1  UNL1       -0.1678
     22 H          65.3001   92.2707   15.0433 H       1  UNL1        0.3014
     23 C          67.9573   91.9649   15.7950 C.3     1  UNL1        0.1126
     24 C          69.1389   94.2679   16.0181 C.3     1  UNL1        0.0006
     25 C          69.1884   92.7704   16.0877 C.3     1  UNL1        0.0121
@<TRIPOS>BOND
     1    24    25    1
     2    25    23    1
     3    23    19    1
     4    19    20    2
     5    19    21   am
     6    21     1    1
     7     1     2    2
     8     2     3    1
     9     3     4    2
    10     4     5    1
    11     5     6    1
    12     6    11    1
    13    11    12   ar
    14    12    13   ar
    15    13    14   ar
    16    14    15    1
    17    14    16   ar
    18    16    17   ar
    19     6     7    2
    20     7     8    1
    21     7     9    1
    22     9    10    2
    23    10     1    1
    24    10     4    1
    25    17    11   ar
    26    21    22    1
    27    15    18    1
@<TRIPOS>MOLECULE
*****
 25 27 0 0 0
SMALL
GASTEIGER

@<TRIPOS>ATOM
      1 C          61.9063   86.4475   11.3573 C.2     1  UNL1        0.3551
      2 N          62.2798   85.2863   12.2302 N.2     1  UNL1        0.0803
      3 N          63.1978   85.7901   13.3042 N.2     1  UNL1       -0.0381
      4 C          63.3916   87.2628   13.0951 C.2     1  UNL1        0.1169
      5 C          64.1917   88.2863   13.8449 C.3     1  UNL1        0.0768
      6 C          64.1937   89.7161   13.3914 C.2     1  UNL1       -0.0098
      7 C          63.3956   90.1223   12.1882 C.2     1  UNL1        0.0313
      8 BR         63.3976   91.5522   11.7347 Br      1  UNL1       -0.0493
      9 C          62.5954   89.0988   11.4383 C.2     1  UNL1        0.0152
     10 C          62.5934   87.6690   11.8918 C.2     1  UNL1        0.1029
     11 C          64.9939   90.7396   14.1413 C.ar    1  UNL1       -0.0029
     12 C          66.2666   91.2738   13.5544 C.ar    1  UNL1        0.0028
     13 C          67.0668   92.2973   14.3042 C.ar    1  UNL1        0.0366
     14 C          66.5941   92.7865   15.6411 C.ar    1  UNL1        0.1337
     15 O          67.3942   93.8099   16.3910 O.3     1  UNL1       -0.5055
     16 C          65.3213   92.2522   16.2281 C.ar    1  UNL1        0.0366
     17 C          64.5212   91.2287   15.4782 C.ar    1  UNL1        0.0028
     18 H          68.1893   94.1437   16.0243 H       1  UNL1        0.2922
     19 C          61.5568   86.0086    8.8205 C.2     1  UNL1        0.3106
     20 O          63.0117   85.6722    8.6782 O.2     1  UNL1       -0.2469
     21 N          61.0042   86.3963   10.1600 N.am    1  UNL1       -0.1678
     22 H          60.0493   86.6170   10.2534 H       1  UNL1        0.3014
     23 C          60.6546   85.9573    7.6232 C.3     1  UNL1        0.1126
     24 C          59.2333   88.1296    7.5165 C.3     1  UNL1        0.0006
     25 C          59.3189   86.6390    7.6609 C.3     1  UNL1        0.0121
@<TRIPOS>BOND
     1    24    25    1
     2    25    23    1
     3    23    19    1
     4    19    20    2
     5    19    21   am
     6    21     1    1
     7     1     2    2
     8     2     3    1
     9     3     4    2
    10     4     5    1
    11     5     6    1
    12     6    11    1
    13    11    12   ar
    14    12    13   ar
    15    13    14   ar
    16    14    15    1
    17    14    16   ar
    18    16    17   ar
    19     6     7    2
    20     7     8    1
    21     7     9    1
    22     9    10    2
    23    10     1    1
    24    10     4    1
    25    17    11   ar
    26    21    22    1
    27    15    18    1
@<TRIPOS>MOLECULE
*****
 25 27 0 0 0
SMALL
GASTEIGER

@<TRIPOS>ATOM
      1 C          60.3674   89.2164    9.5391 C.2     1  UNL1        0.3551
      2 N          59.7361   89.7953   10.7705 N.2     1  UNL1        0.0803
      3 N          60.0153   88.8666   11.9149 N.2     1  UNL1       -0.0381
      4 C          60.8191   87.7138   11.3908 C.2     1  UNL1        0.1169
      5 C          61.3811   86.4951   12.0608 C.3     1  UNL1        0.0768
      6 C          62.1606   85.4926   11.2625 C.2     1  UNL1       -0.0098
      7 C          62.3782   85.7087    9.7943 C.2     1  UNL1        0.0313
      8 BR         63.1578   84.7061    8.9960 Br      1  UNL1       -0.0493
      9 C          61.8162   86.9274    9.1242 C.2     1  UNL1        0.0152
     10 C          61.0367   87.9299    9.9225 C.2     1  UNL1        0.1029
     11 C          62.7226   84.2738   11.9327 C.ar    1  UNL1       -0.0029
     12 C          62.3124   82.9072   11.4702 C.ar    1  UNL1        0.0028
     13 C          62.8743   81.6885   12.1403 C.ar    1  UNL1        0.0366
     14 C          63.8465   81.8365   13.2730 C.ar    1  UNL1        0.1337
     15 O          64.4085   80.6179   13.9431 O.3     1  UNL1       -0.5055
     16 C          64.2567   83.2032   13.7355 C.ar    1  UNL1        0.0366
     17 C          63.6947   84.4219   13.0654 C.ar    1  UNL1        0.0028
     18 H          64.1522   79.7642   13.6542 H       1  UNL1        0.2922
     19 C          59.4480   89.2290    7.1092 C.2     1  UNL1        0.3106
     20 O          58.5933   88.0377    7.4264 O.2     1  UNL1       -0.2469
     21 N          60.3350   89.8183    8.1655 N.am    1  UNL1       -0.1678
     22 H          60.8959   90.6001    7.9573 H       1  UNL1        0.3014
     23 C          59.4156   89.8308    5.7356 C.3     1  UNL1        0.1126
     24 C          59.1391   92.1002    4.5011 C.3     1  UNL1        0.0006
     25 C          58.6346   91.0869    5.4853 C.3     1  UNL1        0.0121
@<TRIPOS>BOND
     1    24    25    1
     2    25    23    1
     3    23    19    1
     4    19    20    2
     5    19    21   am
     6    21     1    1
     7     1     2    2
     8     2     3    1
     9     3     4    2
    10     4     5    1
    11     5     6    1
    12     6    11    1
    13    11    12   ar
    14    12    13   ar
    15    13    14   ar
    16    14    15    1
    17    14    16   ar
    18    16    17   ar
    19     6     7    2
    20     7     8    1
    21     7     9    1
    22     9    10    2
    23    10     1    1
    24    10     4    1
    25    17    11   ar
    26    21    22    1
    27    15    18    1
@<TRIPOS>MOLECULE
*****
 25 27 0 0 0
SMALL
GASTEIGER

@<TRIPOS>ATOM
      1 C          63.1465   89.5927   12.0125 C.2     1  UNL1        0.3551
      2 N          62.1848   89.7431   10.8711 N.2     1  UNL1        0.0803
      3 N          61.6352   88.3857   10.5462 N.2     1  UNL1       -0.0381
      4 C          62.2571   87.3965   11.4867 C.2     1  UNL1        0.1169
      5 C          62.0937   85.9128   11.6350 C.3     1  UNL1        0.0768
      6 C          62.8642   85.1751   12.6895 C.2     1  UNL1       -0.0098
      7 C          63.7982   85.9210   13.5956 C.2     1  UNL1        0.0313
      8 BR         64.5688   85.1832   14.6502 Br      1  UNL1       -0.0493
      9 C          63.9617   87.4047   13.4474 C.2     1  UNL1        0.0152
     10 C          63.1912   88.1424   12.3929 C.2     1  UNL1        0.1029
     11 C          62.7007   83.6914   12.8378 C.ar    1  UNL1       -0.0029
     12 C          63.1240   82.7756   11.7279 C.ar    1  UNL1        0.0028
     13 C          62.9604   81.2918   11.8762 C.ar    1  UNL1        0.0366
     14 C          62.3736   80.7241   13.1345 C.ar    1  UNL1        0.1337
     15 O          62.2101   79.2404   13.2828 O.3     1  UNL1       -0.5055
     16 C          61.9504   81.6400   14.2444 C.ar    1  UNL1        0.0366
     17 C          62.1139   83.1236   14.0961 C.ar    1  UNL1        0.0028
     18 H          62.4745   78.6683   12.5894 H       1  UNL1        0.2922
     19 C          64.5522   91.7687   11.8154 C.2     1  UNL1        0.3106
     20 O          64.3980   91.7332   10.3237 O.2     1  UNL1       -0.2469
     21 N          63.9265   90.6985   12.6597 N.am    1  UNL1       -0.1678
     22 H          64.0277   90.7217   13.6387 H       1  UNL1        0.3014
     23 C          65.3322   92.8744   12.4626 C.3     1  UNL1        0.1126
     24 C          67.2258   93.0653   10.6940 C.3     1  UNL1        0.0006
     25 C          66.2620   93.7171   11.6407 C.3     1  UNL1        0.0121
@<TRIPOS>BOND
     1    24    25    1
     2    25    23    1
     3    23    19    1
     4    19    20    2
     5    19    21   am
     6    21     1    1
     7     1     2    2
     8     2     3    1
     9     3     4    2
    10     4     5    1
    11     5     6    1
    12     6    11    1
    13    11    12   ar
    14    12    13   ar
    15    13    14   ar
    16    14    15    1
    17    14    16   ar
    18    16    17   ar
    19     6     7    2
    20     7     8    1
    21     7     9    1
    22     9    10    2
    23    10     1    1
    24    10     4    1
    25    17    11   ar
    26    21    22    1
    27    15    18    1
@<TRIPOS>MOLECULE
*****
 25 27 0 0 0
SMALL
GASTEIGER

@<TRIPOS>ATOM
      1 C          62.2820   84.9059   10.9773 C.2     1  UNL1        0.3551
      2 N          61.7619   85.6832    9.8046 N.2     1  UNL1        0.0803
      3 N          61.9637   87.1421   10.0892 N.2     1  UNL1       -0.0381
      4 C          62.6085   87.2664   11.4378 C.2     1  UNL1        0.1169
      5 C          63.0419   88.4595   12.2370 C.3     1  UNL1        0.0768
      6 C          63.6720   88.2705   13.5850 C.2     1  UNL1       -0.0098
      7 C          63.8688   86.8885   14.1338 C.2     1  UNL1        0.0313
      8 BR         64.4990   86.6995   15.4819 Br      1  UNL1       -0.0493
      9 C          63.4354   85.6953   13.3347 C.2     1  UNL1        0.0152
     10 C          62.8052   85.8843   11.9866 C.2     1  UNL1        0.1029
     11 C          64.1054   89.4637   14.3842 C.ar    1  UNL1       -0.0029
     12 C          65.2685   90.2918   13.9247 C.ar    1  UNL1        0.0028
     13 C          65.7020   91.4850   14.7239 C.ar    1  UNL1        0.0366
     14 C          64.9721   91.8499   15.9825 C.ar    1  UNL1        0.1337
     15 O          65.4054   93.0430   16.7817 O.3     1  UNL1       -0.5055
     16 C          63.8089   91.0217   16.4420 C.ar    1  UNL1        0.0366
     17 C          63.3756   89.8286   15.6428 C.ar    1  UNL1        0.0028
     18 H          66.1320   93.5603   16.4947 H       1  UNL1        0.2922
     19 C          63.5437   82.6362   10.8944 C.2     1  UNL1        0.3106
     20 O          64.8107   83.3537   10.5337 O.2     1  UNL1       -0.2469
     21 N          62.2794   83.4123   11.1162 N.am    1  UNL1       -0.1678
     22 H          61.4479   82.9414   11.3529 H       1  UNL1        0.3014
     23 C          63.5411   81.1427   11.0333 C.3     1  UNL1        0.1126
     24 C          63.0254   80.6788   13.5371 C.3     1  UNL1        0.0006
     25 C          62.6959   80.4888   12.0861 C.3     1  UNL1        0.0121
@<TRIPOS>BOND
     1    24    25    1
     2    25    23    1
     3    23    19    1
     4    19    20    2
     5    19    21   am
     6    21     1    1
     7     1     2    2
     8     2     3    1
     9     3     4    2
    10     4     5    1
    11     5     6    1
    12     6    11    1
    13    11    12   ar
    14    12    13   ar
    15    13    14   ar
    16    14    15    1
    17    14    16   ar
    18    16    17   ar
    19     6     7    2
    20     7     8    1
    21     7     9    1
    22     9    10    2
    23    10     1    1
    24    10     4    1
    25    17    11   ar
    26    21    22    1
    27    15    18    1
@<TRIPOS>MOLECULE
*****
 25 27 0 0 0
SMALL
GASTEIGER

@<TRIPOS>ATOM
      1 C          63.9974   89.2252   14.6644 C.2     1  UNL1        0.3551
      2 N          64.2373   87.9916   15.4833 N.2     1  UNL1        0.0803
      3 N          63.8840   86.8008   14.6423 N.2     1  UNL1       -0.0381
      4 C          63.4258   87.2985   13.3035 C.2     1  UNL1        0.1169
      5 C          62.9537   86.5809   12.0738 C.3     1  UNL1        0.0768
      6 C          62.5518   87.3617   10.8577 C.2     1  UNL1       -0.0098
      7 C          62.6218   88.8599   10.8714 C.2     1  UNL1        0.0313
      8 BR         62.2198   89.6407    9.6552 Br      1  UNL1       -0.0493
      9 C          63.0939   89.5776   12.1011 C.2     1  UNL1        0.0152
     10 C          63.4958   88.7968   13.3172 C.2     1  UNL1        0.1029
     11 C          62.0797   86.6440    9.6280 C.ar    1  UNL1       -0.0029
     12 C          63.0396   85.8124    8.8300 C.ar    1  UNL1        0.0028
     13 C          62.5675   85.0948    7.6002 C.ar    1  UNL1        0.0366
     14 C          61.1355   85.2089    7.1686 C.ar    1  UNL1        0.1337
     15 O          60.6634   84.4913    5.9389 O.3     1  UNL1       -0.5055
     16 C          60.1756   86.0405    7.9666 C.ar    1  UNL1        0.0366
     17 C          60.6477   86.7581    9.1963 C.ar    1  UNL1        0.0028
     18 H          61.2630   83.9718    5.4403 H       1  UNL1        0.2922
     19 C          65.5655   91.2784   14.9389 C.2     1  UNL1        0.3106
     20 O          66.6885   90.5042   14.3147 O.2     1  UNL1       -0.2469
     21 N          64.2200   90.6389   15.1137 N.am    1  UNL1       -0.1678
     22 H          63.4830   91.1470   15.5234 H       1  UNL1        0.3014
     23 C          65.7881   92.6921   15.3882 C.3     1  UNL1        0.1126
     24 C          68.2902   93.3818   15.5073 C.3     1  UNL1        0.0006
     25 C          67.0028   93.0396   16.1969 C.3     1  UNL1        0.0121
@<TRIPOS>BOND
     1    24    25    1
     2    25    23    1
     3    23    19    1
     4    19    20    2
     5    19    21   am
     6    21     1    1
     7     1     2    2
     8     2     3    1
     9     3     4    2
    10     4     5    1
    11     5     6    1
    12     6    11    1
    13    11    12   ar
    14    12    13   ar
    15    13    14   ar
    16    14    15    1
    17    14    16   ar
    18    16    17   ar
    19     6     7    2
    20     7     8    1
    21     7     9    1
    22     9    10    2
    23    10     1    1
    24    10     4    1
    25    17    11   ar
    26    21    22    1
    27    15    18    1
@<TRIPOS>MOLECULE
*****
 25 27 0 0 0
SMALL
GASTEIGER

@<TRIPOS>ATOM
      1 C          64.1570   90.2352   13.1834 C.2     1  UNL1        0.3551
      2 N          64.7887   90.3275   14.5408 N.2     1  UNL1        0.0803
      3 N          64.7739   88.9583   15.1532 N.2     1  UNL1       -0.0381
      4 C          64.1330   88.0197   14.1743 C.2     1  UNL1        0.1169
      5 C          63.8473   86.5484   14.2342 C.3     1  UNL1        0.0768
      6 C          63.1803   85.8662   13.0767 C.2     1  UNL1       -0.0098
      7 C          62.7990   86.6553   11.8594 C.2     1  UNL1        0.0313
      8 BR         62.1320   85.9730   10.7019 Br      1  UNL1       -0.0493
      9 C          63.0847   88.1266   11.7995 C.2     1  UNL1        0.0152
     10 C          63.7517   88.8088   12.9570 C.2     1  UNL1        0.1029
     11 C          62.8946   84.3948   13.1367 C.ar    1  UNL1       -0.0029
     12 C          63.1966   83.5234   11.9538 C.ar    1  UNL1        0.0028
     13 C          62.9109   82.0520   12.0138 C.ar    1  UNL1        0.0366
     14 C          62.3232   81.4522   13.2566 C.ar    1  UNL1        0.1337
     15 O          62.0375   79.9809   13.3166 O.3     1  UNL1       -0.5055
     16 C          62.0211   82.3237   14.4395 C.ar    1  UNL1        0.0366
     17 C          62.3068   83.7950   14.3795 C.ar    1  UNL1        0.0028
     18 H          62.2262   79.4365   12.5777 H       1  UNL1        0.2922
     19 C          65.1400   92.1958   11.7907 C.2     1  UNL1        0.3106
     20 O          66.5085   91.8870   12.3219 O.2     1  UNL1       -0.2469
     21 N          63.9643   91.3699   12.2215 N.am    1  UNL1       -0.1678
     22 H          63.0662   91.5725   11.8728 H       1  UNL1        0.3014
     23 C          64.9474   93.3305   10.8288 C.3     1  UNL1        0.1126
     24 C          66.9563   94.6501    9.8423 C.3     1  UNL1        0.0006
     25 C          65.8706   94.5121   10.8682 C.3     1  UNL1        0.0121
@<TRIPOS>BOND
     1    24    25    1
     2    25    23    1
     3    23    19    1
     4    19    20    2
     5    19    21   am
     6    21     1    1
     7     1     2    2
     8     2     3    1
     9     3     4    2
    10     4     5    1
    11     5     6    1
    12     6    11    1
    13    11    12   ar
    14    12    13   ar
    15    13    14   ar
    16    14    15    1
    17    14    16   ar
    18    16    17   ar
    19     6     7    2
    20     7     8    1
    21     7     9    1
    22     9    10    2
    23    10     1    1
    24    10     4    1
    25    17    11   ar
    26    21    22    1
    27    15    18    1
