@<TRIPOS>MOLECULE
*****
 21 23 0 0 0
SMALL
GASTEIGER

@<TRIPOS>ATOM
      1 C          62.5644   89.5792   10.4808 C.3     1  UNL1        0.1476
      2 C          62.4159   89.1822   11.9197 C.3     1  UNL1        0.1744
      3 O          62.0810   87.7208   11.9652 O.3     1  UNL1       -0.3268
      4 C          62.0225   87.2145   10.5544 C.3     1  UNL1        0.2313
      5 O          62.3213   88.3630    9.6370 O.3     1  UNL1       -0.3293
      6 C          61.8961   86.4340    9.2797 C.ar    1  UNL1        0.0410
      7 C          63.0662   85.6531    8.7592 C.ar    1  UNL1        0.0022
      8 C          62.9397   84.8726    7.4846 C.ar    1  UNL1        0.0113
      9 C          61.6431   84.8730    6.7304 C.ar    1  UNL1        0.0585
     10 CL         61.5166   84.0924    5.4557 Cl      1  UNL1       -0.0822
     11 C          60.4729   85.6539    7.2509 C.ar    1  UNL1        0.0226
     12 C          60.5994   86.4344    8.5256 C.ar    1  UNL1        0.0591
     13 CL         59.4293   87.2153    9.0461 Cl      1  UNL1       -0.0824
     14 C          64.0356   91.7183   10.5799 C.3     1  UNL1        0.0027
     15 C          62.8975   90.9513    9.9746 C.3     1  UNL1        0.0323
     16 C          61.6973   85.9028   11.2053 C.3     1  UNL1        0.1897
     17 N          62.7159   85.2223   12.0710 N.ar    1  UNL1       -0.2246
     18 C          63.3724   83.9033   11.7893 C.ar    1  UNL1        0.1974
     19 N          64.3190   83.6070   12.9145 N.ar    1  UNL1       -0.2007
     20 C          64.2476   84.7428   13.8916 C.ar    1  UNL1        0.2210
     21 N          63.2568   85.7411   13.3703 N.ar    1  UNL1       -0.1450
@<TRIPOS>BOND
     1    14    15    1
     2    15     1    1
     3     1     2    1
     4     2     3    1
     5     3     4    1
     6     4    16    1
     7    16    17    1
     8    17    18   ar
     9    18    19   ar
    10    19    20   ar
    11    20    21   ar
    12     4     6    1
    13     6     7   ar
    14     7     8   ar
    15     8     9   ar
    16     9    10    1
    17     9    11   ar
    18    11    12   ar
    19    12    13    1
    20     4     5    1
    21     5     1    1
    22    21    17   ar
    23    12     6   ar
@<TRIPOS>MOLECULE
*****
 21 23 0 0 0
SMALL
GASTEIGER

@<TRIPOS>ATOM
      1 C          63.9121   91.3735   11.1545 C.3     1  UNL1        0.1476
      2 C          64.0952   91.2760   12.6401 C.3     1  UNL1        0.1744
      3 O          65.0459   92.3569   13.0619 O.3     1  UNL1       -0.3268
      4 C          65.4503   93.1224   11.8370 C.3     1  UNL1        0.2313
      5 O          64.7496   92.5147   10.6582 O.3     1  UNL1       -0.3293
      6 C          66.0265   94.0558   10.8138 C.ar    1  UNL1        0.0410
      7 C          65.4685   95.4399   10.6627 C.ar    1  UNL1        0.0022
      8 C          66.0446   96.3733    9.6396 C.ar    1  UNL1        0.0113
      9 C          67.1788   95.9225    8.7675 C.ar    1  UNL1        0.0585
     10 CL         67.7549   96.8560    7.7443 Cl      1  UNL1       -0.0822
     11 C          67.7368   94.5384    8.9186 C.ar    1  UNL1        0.0226
     12 C          67.1606   93.6051    9.9417 C.ar    1  UNL1        0.0591
     13 CL         67.7186   92.2209   10.0928 Cl      1  UNL1       -0.0824
     14 C          62.4806   89.2215   10.8911 C.3     1  UNL1        0.0027
     15 C          63.0439   90.4858   10.3130 C.3     1  UNL1        0.0323
     16 C          66.2715   93.9253   12.8019 C.3     1  UNL1        0.1897
     17 N          67.0442   93.2336   13.8856 N.ar    1  UNL1       -0.2246
     18 C          66.7183   93.2514   15.3497 C.ar    1  UNL1        0.1974
     19 N          67.7512   92.4315   16.0645 N.ar    1  UNL1       -0.2007
     20 C          68.7155   91.9070   15.0422 C.ar    1  UNL1        0.2210
     21 N          68.2786   92.4028   13.6956 N.ar    1  UNL1       -0.1450
@<TRIPOS>BOND
     1    14    15    1
     2    15     1    1
     3     1     2    1
     4     2     3    1
     5     3     4    1
     6     4    16    1
     7    16    17    1
     8    17    18   ar
     9    18    19   ar
    10    19    20   ar
    11    20    21   ar
    12     4     6    1
    13     6     7   ar
    14     7     8   ar
    15     8     9   ar
    16     9    10    1
    17     9    11   ar
    18    11    12   ar
    19    12    13    1
    20     4     5    1
    21     5     1    1
    22    21    17   ar
    23    12     6   ar
@<TRIPOS>MOLECULE
*****
 21 23 0 0 0
SMALL
GASTEIGER

@<TRIPOS>ATOM
      1 C          62.1086   86.3991   11.0578 C.3     1  UNL1        0.1476
      2 C          62.8102   87.3985   11.9290 C.3     1  UNL1        0.1744
      3 O          63.4044   86.6624   13.0930 O.3     1  UNL1       -0.3268
      4 C          63.0700   85.2080   12.9413 C.3     1  UNL1        0.2313
      5 O          62.2692   85.0453   11.6835 O.3     1  UNL1       -0.3293
      6 C          62.8955   83.7227   13.0577 C.ar    1  UNL1        0.0410
      7 C          61.9657   83.1554   14.0890 C.ar    1  UNL1        0.0022
      8 C          61.7912   81.6701   14.2053 C.ar    1  UNL1        0.0113
      9 C          62.5465   80.7523   13.2904 C.ar    1  UNL1        0.0585
     10 CL         62.3720   79.2670   13.4068 Cl      1  UNL1       -0.0822
     11 C          63.4763   81.3196   12.2591 C.ar    1  UNL1        0.0226
     12 C          63.6508   82.8049   12.1428 C.ar    1  UNL1        0.0591
     13 CL         64.5806   83.3723   11.1115 Cl      1  UNL1       -0.0824
     14 C          61.7442   85.9849    8.5190 C.3     1  UNL1        0.0027
     15 C          61.3751   86.7005    9.7846 C.3     1  UNL1        0.0323
     16 C          63.8344   85.0603   14.2235 C.3     1  UNL1        0.1897
     17 N          63.3373   85.7236   15.4736 N.ar    1  UNL1       -0.2246
     18 C          62.4486   85.1003   16.5089 C.ar    1  UNL1        0.1974
     19 N          62.2037   86.1181   17.5832 N.ar    1  UNL1       -0.2007
     20 C          62.9411   87.3705   17.2118 C.ar    1  UNL1        0.2210
     21 N          63.6417   87.1266   15.9081 N.ar    1  UNL1       -0.1450
@<TRIPOS>BOND
     1    14    15    1
     2    15     1    1
     3     1     2    1
     4     2     3    1
     5     3     4    1
     6     4    16    1
     7    16    17    1
     8    17    18   ar
     9    18    19   ar
    10    19    20   ar
    11    20    21   ar
    12     4     6    1
    13     6     7   ar
    14     7     8   ar
    15     8     9   ar
    16     9    10    1
    17     9    11   ar
    18    11    12   ar
    19    12    13    1
    20     4     5    1
    21     5     1    1
    22    21    17   ar
    23    12     6   ar
@<TRIPOS>MOLECULE
*****
 21 23 0 0 0
SMALL
GASTEIGER

@<TRIPOS>ATOM
      1 C          64.1539   86.0121   14.3380 C.3     1  UNL1        0.1476
      2 C          64.5473   84.6211   14.7382 C.3     1  UNL1        0.1744
      3 O          64.1032   83.6838   13.6546 O.3     1  UNL1       -0.3268
      4 C          63.4355   84.4957   12.5845 C.3     1  UNL1        0.2313
      5 O          63.4668   85.9346   13.0069 O.3     1  UNL1       -0.3293
      6 C          62.7303   85.0300   11.3732 C.ar    1  UNL1        0.0410
      7 C          61.5731   85.9708   11.5331 C.ar    1  UNL1        0.0022
      8 C          60.8680   86.5051   10.3217 C.ar    1  UNL1        0.0113
      9 C          61.3201   86.0985    8.9505 C.ar    1  UNL1        0.0585
     10 CL         60.6150   86.6329    7.7392 Cl      1  UNL1       -0.0822
     11 C          62.4774   85.1577    8.7906 C.ar    1  UNL1        0.0226
     12 C          63.1824   84.6234   10.0019 C.ar    1  UNL1        0.0591
     13 CL         64.3398   83.6826    9.8420 Cl      1  UNL1       -0.0824
     14 C          64.3069   88.6026   14.4652 C.3     1  UNL1        0.0027
     15 C          64.4039   87.2614   15.1298 C.3     1  UNL1        0.0323
     16 C          63.2567   83.1684   11.9089 C.3     1  UNL1        0.1897
     17 N          62.6245   82.0283   12.6508 N.ar    1  UNL1       -0.2246
     18 C          62.8448   80.5696   12.3795 C.ar    1  UNL1        0.1974
     19 N          62.0174   79.7865   13.3553 N.ar    1  UNL1       -0.2007
     20 C          61.2858   80.7612   14.2297 C.ar    1  UNL1        0.2210
     21 N          61.6610   82.1467   13.7943 N.ar    1  UNL1       -0.1450
@<TRIPOS>BOND
     1    14    15    1
     2    15     1    1
     3     1     2    1
     4     2     3    1
     5     3     4    1
     6     4    16    1
     7    16    17    1
     8    17    18   ar
     9    18    19   ar
    10    19    20   ar
    11    20    21   ar
    12     4     6    1
    13     6     7   ar
    14     7     8   ar
    15     8     9   ar
    16     9    10    1
    17     9    11   ar
    18    11    12   ar
    19    12    13    1
    20     4     5    1
    21     5     1    1
    22    21    17   ar
    23    12     6   ar
@<TRIPOS>MOLECULE
*****
 21 23 0 0 0
SMALL
GASTEIGER

@<TRIPOS>ATOM
      1 C          62.7173   90.5005   11.8908 C.3     1  UNL1        0.1476
      2 C          63.9227   91.3690   11.6844 C.3     1  UNL1        0.1744
      3 O          64.8859   91.0984   12.8020 O.3     1  UNL1       -0.3268
      4 C          64.2758   90.0626   13.6991 C.3     1  UNL1        0.2313
      5 O          62.9356   89.6930   13.1360 O.3     1  UNL1       -0.3293
      6 C          63.9309   89.0602   14.7604 C.ar    1  UNL1        0.0410
      7 C          64.1423   87.5970   14.5071 C.ar    1  UNL1        0.0022
      8 C          63.7973   86.5947   15.5684 C.ar    1  UNL1        0.0113
      9 C          63.2410   87.0556   16.8830 C.ar    1  UNL1        0.0585
     10 CL         62.8961   86.0532   17.9443 Cl      1  UNL1       -0.0822
     11 C          63.0296   88.5188   17.1362 C.ar    1  UNL1        0.0226
     12 C          63.3746   89.5212   16.0750 C.ar    1  UNL1        0.0591
     13 CL         63.1632   90.9845   16.3282 Cl      1  UNL1       -0.0824
     14 C          60.1985   89.9594   11.5552 C.3     1  UNL1        0.0027
     15 C          61.5063   90.4484   11.0072 C.3     1  UNL1        0.0323
     16 C          65.5440   90.2226   14.4841 C.3     1  UNL1        0.1897
     17 N          66.3019   91.5158   14.4291 N.ar    1  UNL1       -0.2246
     18 C          67.7278   91.6844   13.9949 C.ar    1  UNL1        0.1974
     19 N          68.0742   93.1403   14.0961 N.ar    1  UNL1       -0.2007
     20 C          66.8625   93.8716   14.5928 C.ar    1  UNL1        0.2210
     21 N          65.7671   92.8677   14.7986 N.ar    1  UNL1       -0.1450
@<TRIPOS>BOND
     1    14    15    1
     2    15     1    1
     3     1     2    1
     4     2     3    1
     5     3     4    1
     6     4    16    1
     7    16    17    1
     8    17    18   ar
     9    18    19   ar
    10    19    20   ar
    11    20    21   ar
    12     4     6    1
    13     6     7   ar
    14     7     8   ar
    15     8     9   ar
    16     9    10    1
    17     9    11   ar
    18    11    12   ar
    19    12    13    1
    20     4     5    1
    21     5     1    1
    22    21    17   ar
    23    12     6   ar
@<TRIPOS>MOLECULE
*****
 21 23 0 0 0
SMALL
GASTEIGER

@<TRIPOS>ATOM
      1 C          67.4057   92.2392   14.1197 C.3     1  UNL1        0.1476
      2 C          66.2544   91.2807   14.1954 C.3     1  UNL1        0.1744
      3 O          65.3885   91.5001   12.9904 O.3     1  UNL1       -0.3268
      4 C          66.0047   92.5942   12.1699 C.3     1  UNL1        0.2313
      5 O          67.2514   93.0510   12.8678 O.3     1  UNL1       -0.3293
      6 C          66.3764   93.6385   11.1593 C.ar    1  UNL1        0.0410
      7 C          65.7579   95.0033   11.2288 C.ar    1  UNL1        0.0022
      8 C          66.1297   96.0475   10.2182 C.ar    1  UNL1        0.0113
      9 C          67.1199   95.7269    9.1380 C.ar    1  UNL1        0.0585
     10 CL         67.4917   96.7712    8.1274 Cl      1  UNL1       -0.0822
     11 C          67.7384   94.3622    9.0685 C.ar    1  UNL1        0.0226
     12 C          67.3666   93.3180   10.0791 C.ar    1  UNL1        0.0591
     13 CL         67.9851   91.9531   10.0096 Cl      1  UNL1       -0.0824
     14 C          68.7460   93.6667   15.8272 C.3     1  UNL1        0.0027
     15 C          68.5164   92.3640   15.1201 C.3     1  UNL1        0.0323
     16 C          64.8357   92.3558   11.2607 C.3     1  UNL1        0.1897
     17 N          63.8834   91.2317   11.5427 N.ar    1  UNL1       -0.2246
     18 C          63.2269   90.9417   12.8599 C.ar    1  UNL1        0.1974
     19 N          62.3581   89.7311   12.6883 N.ar    1  UNL1       -0.2007
     20 C          62.4775   89.2729   11.2650 C.ar    1  UNL1        0.2210
     21 N          63.4201   90.2003   10.5570 N.ar    1  UNL1       -0.1450
@<TRIPOS>BOND
     1    14    15    1
     2    15     1    1
     3     1     2    1
     4     2     3    1
     5     3     4    1
     6     4    16    1
     7    16    17    1
     8    17    18   ar
     9    18    19   ar
    10    19    20   ar
    11    20    21   ar
    12     4     6    1
    13     6     7   ar
    14     7     8   ar
    15     8     9   ar
    16     9    10    1
    17     9    11   ar
    18    11    12   ar
    19    12    13    1
    20     4     5    1
    21     5     1    1
    22    21    17   ar
    23    12     6   ar
@<TRIPOS>MOLECULE
*****
 21 23 0 0 0
SMALL
GASTEIGER

@<TRIPOS>ATOM
      1 C          63.5281   89.1341   12.8190 C.3     1  UNL1        0.1476
      2 C          64.0447   88.0920   13.7662 C.3     1  UNL1        0.1744
      3 O          63.5603   86.7539   13.2923 O.3     1  UNL1       -0.3268
      4 C          62.7443   86.9689   12.0522 C.3     1  UNL1        0.2313
      5 O          62.7244   88.4399   11.7597 O.3     1  UNL1       -0.3293
      6 C          61.8953   86.8721   10.8193 C.ar    1  UNL1        0.0410
      7 C          62.3736   86.0785    9.6397 C.ar    1  UNL1        0.0022
      8 C          61.5246   85.9818    8.4069 C.ar    1  UNL1        0.0113
      9 C          60.1974   86.6786    8.3537 C.ar    1  UNL1        0.0585
     10 CL         59.3484   86.5818    7.1208 Cl      1  UNL1       -0.0822
     11 C          59.7190   87.4721    9.5333 C.ar    1  UNL1        0.0226
     12 C          60.5680   87.5689   10.7661 C.ar    1  UNL1        0.0591
     13 CL         60.0897   88.3624   11.9458 Cl      1  UNL1       -0.0824
     14 C          64.0131   91.4133   11.6701 C.3     1  UNL1        0.0027
     15 C          63.7724   90.6110   12.9144 C.3     1  UNL1        0.0323
     16 C          62.5867   85.4776   12.0870 C.3     1  UNL1        0.1897
     17 N          62.9142   84.7178   13.3381 N.ar    1  UNL1       -0.2246
     18 C          64.1275   83.8638   13.5590 C.ar    1  UNL1        0.1974
     19 N          64.0492   83.2968   14.9454 N.ar    1  UNL1       -0.2007
     20 C          62.7875   83.8003   15.5815 C.ar    1  UNL1        0.2210
     21 N          62.0861   84.6785   14.5882 N.ar    1  UNL1       -0.1450
@<TRIPOS>BOND
     1    14    15    1
     2    15     1    1
     3     1     2    1
     4     2     3    1
     5     3     4    1
     6     4    16    1
     7    16    17    1
     8    17    18   ar
     9    18    19   ar
    10    19    20   ar
    11    20    21   ar
    12     4     6    1
    13     6     7   ar
    14     7     8   ar
    15     8     9   ar
    16     9    10    1
    17     9    11   ar
    18    11    12   ar
    19    12    13    1
    20     4     5    1
    21     5     1    1
    22    21    17   ar
    23    12     6   ar
@<TRIPOS>MOLECULE
*****
 21 23 0 0 0
SMALL
GASTEIGER

@<TRIPOS>ATOM
      1 C          63.9783   87.0092   13.8883 C.3     1  UNL1        0.1476
      2 C          64.2898   85.6282   14.3840 C.3     1  UNL1        0.1744
      3 O          63.6536   84.6448   13.4469 O.3     1  UNL1       -0.3268
      4 C          62.9489   85.4181   12.3720 C.3     1  UNL1        0.2313
      5 O          63.1496   86.8794   12.6448 O.3     1  UNL1       -0.3293
      6 C          62.1681   85.9073   11.1883 C.ar    1  UNL1        0.0410
      7 C          61.0453   86.8830   11.3816 C.ar    1  UNL1        0.0022
      8 C          60.2646   87.3721   10.1979 C.ar    1  UNL1        0.0113
      9 C          60.6066   86.8855    8.8209 C.ar    1  UNL1        0.0585
     10 CL         59.8258   87.3746    7.6372 Cl      1  UNL1       -0.0822
     11 C          61.7293   85.9098    8.6275 C.ar    1  UNL1        0.0226
     12 C          62.5101   85.4207    9.8112 C.ar    1  UNL1        0.0591
     13 CL         63.6329   84.4449    9.6179 Cl      1  UNL1       -0.0824
     14 C          64.0010   89.6068   13.9301 C.3     1  UNL1        0.0027
     15 C          64.4183   88.2944   14.5245 C.3     1  UNL1        0.0323
     16 C          62.5850   84.0591   11.8517 C.3     1  UNL1        0.1897
     17 N          62.7403   82.8534   12.7303 N.ar    1  UNL1       -0.2246
     18 C          61.9882   82.5849   14.0001 C.ar    1  UNL1        0.1974
     19 N          62.4581   81.2700   14.5480 N.ar    1  UNL1       -0.2007
     20 C          63.5005   80.7258   13.6169 C.ar    1  UNL1        0.2210
     21 N          63.6750   81.7044   12.4935 N.ar    1  UNL1       -0.1450
@<TRIPOS>BOND
     1    14    15    1
     2    15     1    1
     3     1     2    1
     4     2     3    1
     5     3     4    1
     6     4    16    1
     7    16    17    1
     8    17    18   ar
     9    18    19   ar
    10    19    20   ar
    11    20    21   ar
    12     4     6    1
    13     6     7   ar
    14     7     8   ar
    15     8     9   ar
    16     9    10    1
    17     9    11   ar
    18    11    12   ar
    19    12    13    1
    20     4     5    1
    21     5     1    1
    22    21    17   ar
    23    12     6   ar
@<TRIPOS>MOLECULE
*****
 21 23 0 0 0
SMALL
GASTEIGER

@<TRIPOS>ATOM
      1 C          62.8692   89.1508   12.3148 C.3     1  UNL1        0.1476
      2 C          61.5793   89.7157   11.7983 C.3     1  UNL1        0.1744
      3 O          60.8409   88.6166   11.0936 O.3     1  UNL1       -0.3268
      4 C          61.6746   87.3722   11.1746 C.3     1  UNL1        0.2313
      5 O          62.9281   87.7023   11.9294 O.3     1  UNL1       -0.3293
      6 C          62.2722   85.9987   11.0943 C.ar    1  UNL1        0.0410
      7 C          62.2916   85.1171   12.3077 C.ar    1  UNL1        0.0022
      8 C          62.8892   83.7437   12.2274 C.ar    1  UNL1        0.0113
      9 C          63.4675   83.2519   10.9337 C.ar    1  UNL1        0.0585
     10 CL         64.0652   81.8784   10.8534 Cl      1  UNL1       -0.0822
     11 C          63.4481   84.1335    9.7203 C.ar    1  UNL1        0.0226
     12 C          62.8505   85.5069    9.8006 C.ar    1  UNL1        0.0591
     13 CL         62.8311   86.3886    8.5872 Cl      1  UNL1       -0.0824
     14 C          64.4495   89.3435   14.3680 C.3     1  UNL1        0.0027
     15 C          63.9163   89.9022   13.0821 C.3     1  UNL1        0.0323
     16 C          60.5460   86.7549   10.4031 C.3     1  UNL1        0.1897
     17 N          59.9947   87.4513    9.1943 N.ar    1  UNL1       -0.2246
     18 C          58.9448   86.9122    8.2685 C.ar    1  UNL1        0.1974
     19 N          58.6977   87.9367    7.2011 N.ar    1  UNL1       -0.2007
     20 C          59.5949   89.1090    7.4672 C.ar    1  UNL1        0.2210
     21 N          60.3965   88.8089    8.6991 N.ar    1  UNL1       -0.1450
@<TRIPOS>BOND
     1    14    15    1
     2    15     1    1
     3     1     2    1
     4     2     3    1
     5     3     4    1
     6     4    16    1
     7    16    17    1
     8    17    18   ar
     9    18    19   ar
    10    19    20   ar
    11    20    21   ar
    12     4     6    1
    13     6     7   ar
    14     7     8   ar
    15     8     9   ar
    16     9    10    1
    17     9    11   ar
    18    11    12   ar
    19    12    13    1
    20     4     5    1
    21     5     1    1
    22    21    17   ar
    23    12     6   ar
