@<TRIPOS>MOLECULE
*****
 35 39 0 0 0
SMALL
GASTEIGER

@<TRIPOS>ATOM
      1 C          60.9798   93.2083    2.0117 C.ar    1  UNL1        0.0560
      2 C          62.3312   93.4367    1.4023 C.ar    1  UNL1        0.0046
      3 C          63.5322   92.7267    1.9532 C.ar    1  UNL1        0.0017
      4 C          63.3817   91.7882    3.1136 C.ar    1  UNL1        0.0192
      5 C          62.0303   91.5598    3.7231 C.ar    1  UNL1        0.0830
      6 N          61.5767   90.6996    4.8652 N.ar    1  UNL1       -0.2410
      7 C          60.0955   90.8781    5.0201 C.ar    1  UNL1        0.1283
      8 C          59.1075   90.2822    5.9788 C.ar    1  UNL1        0.1526
      9 N          57.6577   90.6569    5.8911 N.ar    1  UNL1       -0.2091
     10 C          57.1959   91.6273    4.8448 C.ar    1  UNL1        0.1763
     11 N          58.1838   92.2231    3.8861 N.ar    1  UNL1       -0.3348
     12 C          59.6336   91.8485    3.9738 C.ar    1  UNL1        0.0799
     13 C          60.8294   92.2699    3.1722 C.ar    1  UNL1        0.0392
     14 H          57.8806   92.8601    3.1993 H       1  UNL1        0.1675
     15 N          59.5694   89.3118    7.0252 N.pl3   1  UNL1       -0.2891
     16 C          60.2313   89.8140    8.2739 C.3     1  UNL1        0.1095
     17 C          60.6932   88.8435    9.3203 C.3     1  UNL1        0.0939
     18 N          60.4931   87.3708    9.1178 N.3     1  UNL1       -0.2695
     19 C          59.8312   86.8685    7.8690 C.3     1  UNL1        0.0939
     20 C          59.3694   87.8390    6.8227 C.3     1  UNL1        0.1095
     21 C          60.9550   86.4003   10.1642 C.3     1  UNL1        0.0769
     22 C          62.3982   85.9962   10.2276 C.3     1  UNL1        0.0437
     23 C          62.7973   84.7536   10.9668 C.ar    1  UNL1       -0.0184
     24 C          63.5527   83.6690   10.2576 C.ar    1  UNL1       -0.0018
     25 C          63.9518   82.4263   10.9969 C.ar    1  UNL1        0.0316
     26 C          63.5956   82.2683   12.4454 C.ar    1  UNL1        0.1674
     27 F          63.9947   81.0256   13.1846 F       1  UNL1       -0.2018
     28 C          62.8402   83.3529   13.1546 C.ar    1  UNL1        0.1671
     29 F          62.4840   83.1949   14.6031 F       1  UNL1       -0.2018
     30 C          62.4411   84.5955   12.4154 C.ar    1  UNL1        0.0277
     31 N          59.6348   95.4003    1.6427 N.am    1  UNL1       -0.3253
     32 C          59.7789   93.9184    1.4608 C.2     1  UNL1        0.2428
     33 O          58.7219   93.1465    0.7280 O.2     1  UNL1       -0.2704
     34 H          58.8466   95.8663    1.2811 H       1  UNL1        0.1453
     35 H          60.3285   95.9069    2.1237 H       1  UNL1        0.1453
@<TRIPOS>BOND
     1    31    32   am
     2    32    33    2
     3    32     1    1
     4     1     2   ar
     5     2     3   ar
     6     3     4   ar
     7     4     5   ar
     8     5     6   ar
     9     6     7   ar
    10     7     8   ar
    11     8    15    1
    12    15    16    1
    13    16    17    1
    14    17    18    1
    15    18    21    1
    16    21    22    1
    17    22    23    1
    18    23    24   ar
    19    24    25   ar
    20    25    26   ar
    21    26    27    1
    22    26    28   ar
    23    28    29    1
    24    28    30   ar
    25    18    19    1
    26    19    20    1
    27     8     9   ar
    28     9    10   ar
    29    10    11   ar
    30    11    12   ar
    31    12    13   ar
    32    13     1   ar
    33    13     5   ar
    34    12     7    1
    35    20    15    1
    36    30    23   ar
    37    31    34    1
    38    31    35    1
    39    11    14    1
@<TRIPOS>MOLECULE
*****
 35 39 0 0 0
SMALL
GASTEIGER

@<TRIPOS>ATOM
      1 C          71.0830   69.9947   14.7440 C.ar    1  UNL1        0.0560
      2 C          70.3181   69.1781   13.7450 C.ar    1  UNL1        0.0046
      3 C          69.7558   69.8300   12.5166 C.ar    1  UNL1        0.0017
      4 C          69.9585   71.2984   12.2872 C.ar    1  UNL1        0.0192
      5 C          70.7234   72.1150   13.2863 C.ar    1  UNL1        0.0830
      6 N          71.0809   73.5711   13.3294 N.ar    1  UNL1       -0.2410
      7 C          71.8641   73.8192   14.5844 C.ar    1  UNL1        0.1283
      8 C          72.4785   75.0631   15.1548 C.ar    1  UNL1        0.1526
      9 N          73.2193   75.0042   16.4577 N.ar    1  UNL1       -0.2091
     10 C          73.3458   73.7013   17.1902 C.ar    1  UNL1        0.1763
     11 N          72.7315   72.4574   16.6198 N.ar    1  UNL1       -0.3348
     12 C          71.9906   72.5164   15.3169 C.ar    1  UNL1        0.0799
     13 C          71.2856   71.4631   14.5147 C.ar    1  UNL1        0.0392
     14 H          72.8145   71.6024   17.1007 H       1  UNL1        0.1675
     15 N          72.3520   76.3659   14.4222 N.pl3   1  UNL1       -0.2891
     16 C          72.7717   77.6436   15.0864 C.3     1  UNL1        0.1095
     17 C          72.6452   78.9465   14.3538 C.3     1  UNL1        0.0939
     18 N          72.0989   78.9715   12.9570 N.3     1  UNL1       -0.2695
     19 C          71.6792   77.6938   12.2928 C.3     1  UNL1        0.0939
     20 C          71.8057   76.3910   13.0254 C.3     1  UNL1        0.1095
     21 C          71.9724   80.2744   12.2245 C.3     1  UNL1        0.0769
     22 C          72.9856   80.6516   11.1846 C.3     1  UNL1        0.0437
     23 C          72.5510   80.9073    9.7720 C.ar    1  UNL1       -0.0184
     24 C          72.2739   82.3086    9.3145 C.ar    1  UNL1       -0.0018
     25 C          71.8392   82.5642    7.9017 C.ar    1  UNL1        0.0316
     26 C          71.6817   81.4185    6.9465 C.ar    1  UNL1        0.1674
     27 F          71.2471   81.6742    5.5338 F       1  UNL1       -0.2018
     28 C          71.9588   80.0171    7.4040 C.ar    1  UNL1        0.1671
     29 F          71.8012   78.8713    6.4488 F       1  UNL1       -0.2018
     30 C          72.3934   79.7615    8.8167 C.ar    1  UNL1        0.0277
     31 N          72.6660   68.2515   15.8419 N.am    1  UNL1       -0.3253
     32 C          71.6452   69.3428   15.9724 C.2     1  UNL1        0.2428
     33 O          71.1867   69.7822   17.3313 O.2     1  UNL1       -0.2704
     34 H          73.0350   67.8237   16.6481 H       1  UNL1        0.1453
     35 H          72.9670   67.9631   14.9500 H       1  UNL1        0.1453
@<TRIPOS>BOND
     1    31    32   am
     2    32    33    2
     3    32     1    1
     4     1     2   ar
     5     2     3   ar
     6     3     4   ar
     7     4     5   ar
     8     5     6   ar
     9     6     7   ar
    10     7     8   ar
    11     8    15    1
    12    15    16    1
    13    16    17    1
    14    17    18    1
    15    18    21    1
    16    21    22    1
    17    22    23    1
    18    23    24   ar
    19    24    25   ar
    20    25    26   ar
    21    26    27    1
    22    26    28   ar
    23    28    29    1
    24    28    30   ar
    25    18    19    1
    26    19    20    1
    27     8     9   ar
    28     9    10   ar
    29    10    11   ar
    30    11    12   ar
    31    12    13   ar
    32    13     1   ar
    33    13     5   ar
    34    12     7    1
    35    20    15    1
    36    30    23   ar
    37    31    34    1
    38    31    35    1
    39    11    14    1
@<TRIPOS>MOLECULE
*****
 35 39 0 0 0
SMALL
GASTEIGER

@<TRIPOS>ATOM
      1 C          62.7519   94.4997   -3.6014 C.ar    1  UNL1        0.0560
      2 C          61.7033   94.6099   -4.6683 C.ar    1  UNL1        0.0046
      3 C          60.2811   94.2440   -4.3627 C.ar    1  UNL1        0.0017
      4 C          59.9074   93.7678   -2.9903 C.ar    1  UNL1        0.0192
      5 C          60.9560   93.6576   -1.9234 C.ar    1  UNL1        0.0830
      6 N          60.8872   93.2226   -0.4896 N.ar    1  UNL1       -0.2410
      7 C          62.2668   93.3196    0.0911 C.ar    1  UNL1        0.1283
      8 C          62.8031   93.0212    1.4598 C.ar    1  UNL1        0.1526
      9 N          64.2608   93.2178    1.7535 N.ar    1  UNL1       -0.2091
     10 C          65.1823   93.7129    0.6785 C.ar    1  UNL1        0.1763
     11 N          64.6461   94.0113   -0.6903 N.ar    1  UNL1       -0.3348
     12 C          63.1884   93.8147   -0.9840 C.ar    1  UNL1        0.0799
     13 C          62.3783   94.0236   -2.2290 C.ar    1  UNL1        0.0392
     14 H          65.2509   94.3362   -1.3958 H       1  UNL1        0.1675
     15 N          61.8816   92.5262    2.5349 N.pl3   1  UNL1       -0.2891
     16 C          60.5131   93.1221    2.6827 C.3     1  UNL1        0.1095
     17 C          59.5916   92.6270    3.7578 C.3     1  UNL1        0.0939
     18 N          60.0386   91.5360    4.6850 N.3     1  UNL1       -0.2695
     19 C          61.4072   90.9400    4.5372 C.3     1  UNL1        0.0939
     20 C          62.3286   91.4351    3.4622 C.3     1  UNL1        0.1095
     21 C          59.1171   91.0409    5.7601 C.3     1  UNL1        0.0769
     22 C          58.9141   89.5674    5.9540 C.3     1  UNL1        0.0437
     23 C          59.3622   88.9095    7.2253 C.ar    1  UNL1       -0.0184
     24 C          59.0862   87.4529    7.4537 C.ar    1  UNL1       -0.0018
     25 C          59.5344   86.7950    8.7251 C.ar    1  UNL1        0.0316
     26 C          60.2586   87.5937    9.7680 C.ar    1  UNL1        0.1674
     27 F          60.7067   86.9357   11.0393 F       1  UNL1       -0.2018
     28 C          60.5346   89.0503    9.5396 C.ar    1  UNL1        0.1671
     29 F          61.2588   89.8489   10.5825 F       1  UNL1       -0.2018
     30 C          60.0864   89.7081    8.2683 C.ar    1  UNL1        0.0277
     31 N          64.9195   94.1405   -4.9879 N.am    1  UNL1       -0.3253
     32 C          64.1741   94.8657   -3.9070 C.2     1  UNL1        0.2428
     33 O          64.8509   95.9569   -3.1317 O.2     1  UNL1       -0.2704
     34 H          65.8529   94.3807   -5.1884 H       1  UNL1        0.1453
     35 H          64.4753   93.4243   -5.4968 H       1  UNL1        0.1453
@<TRIPOS>BOND
     1    31    32   am
     2    32    33    2
     3    32     1    1
     4     1     2   ar
     5     2     3   ar
     6     3     4   ar
     7     4     5   ar
     8     5     6   ar
     9     6     7   ar
    10     7     8   ar
    11     8    15    1
    12    15    16    1
    13    16    17    1
    14    17    18    1
    15    18    21    1
    16    21    22    1
    17    22    23    1
    18    23    24   ar
    19    24    25   ar
    20    25    26   ar
    21    26    27    1
    22    26    28   ar
    23    28    29    1
    24    28    30   ar
    25    18    19    1
    26    19    20    1
    27     8     9   ar
    28     9    10   ar
    29    10    11   ar
    30    11    12   ar
    31    12    13   ar
    32    13     1   ar
    33    13     5   ar
    34    12     7    1
    35    20    15    1
    36    30    23   ar
    37    31    34    1
    38    31    35    1
    39    11    14    1
@<TRIPOS>MOLECULE
*****
 35 39 0 0 0
SMALL
GASTEIGER

@<TRIPOS>ATOM
      1 C          60.3694   94.1211   -3.4721 C.ar    1  UNL1        0.0560
      2 C          59.2467   93.8040   -4.4149 C.ar    1  UNL1        0.0046
      3 C          58.0556   93.0318   -3.9301 C.ar    1  UNL1        0.0017
      4 C          57.9872   92.5768   -2.5024 C.ar    1  UNL1        0.0192
      5 C          59.1099   92.8939   -1.5596 C.ar    1  UNL1        0.0830
      6 N          59.3208   92.5795   -0.1082 N.ar    1  UNL1       -0.2410
      7 C          60.6422   93.1574    0.3041 C.ar    1  UNL1        0.1283
      8 C          61.3720   93.1589    1.6146 C.ar    1  UNL1        0.1526
      9 N          62.7077   93.8320    1.7284 N.ar    1  UNL1       -0.2091
     10 C          63.3135   94.5035    0.5317 C.ar    1  UNL1        0.1763
     11 N          62.5836   94.5019   -0.7788 N.ar    1  UNL1       -0.3348
     12 C          61.2480   93.8289   -0.8926 C.ar    1  UNL1        0.0799
     13 C          60.3010   93.6661   -2.0444 C.ar    1  UNL1        0.0392
     14 H          62.9813   94.9427   -1.5642 H       1  UNL1        0.1675
     15 N          60.7662   92.4874    2.8113 N.pl3   1  UNL1       -0.2891
     16 C          59.3194   92.7056    3.1413 C.3     1  UNL1        0.1095
     17 C          58.7137   92.0340    4.3381 C.3     1  UNL1        0.0939
     18 N          59.5548   91.1444    5.2047 N.3     1  UNL1       -0.2695
     19 C          61.0016   90.9262    4.8746 C.3     1  UNL1        0.0939
     20 C          61.6073   91.5977    3.6779 C.3     1  UNL1        0.1095
     21 C          58.9490   90.4729    6.4014 C.3     1  UNL1        0.0769
     22 C          59.1980   89.0146    6.6493 C.3     1  UNL1        0.0437
     23 C          59.9456   88.5790    7.8746 C.ar    1  UNL1       -0.0184
     24 C          60.3345   89.5880    8.9140 C.ar    1  UNL1       -0.0018
     25 C          61.0821   89.1524   10.1394 C.ar    1  UNL1        0.0316
     26 C          61.4408   87.7078   10.3252 C.ar    1  UNL1        0.1674
     27 F          62.1883   87.2723   11.5505 F       1  UNL1       -0.2018
     28 C          61.0518   86.6988    9.2857 C.ar    1  UNL1        0.1671
     29 F          61.4104   85.2542    9.4715 F       1  UNL1       -0.2018
     30 C          60.3042   87.1344    8.0604 C.ar    1  UNL1        0.0277
     31 N          62.4138   94.3413   -5.0601 N.am    1  UNL1       -0.3253
     32 C          61.5605   94.8933   -3.9569 C.2     1  UNL1        0.2428
     33 O          61.8983   96.2174   -3.3384 O.2     1  UNL1       -0.2704
     34 H          63.1955   94.8482   -5.3783 H       1  UNL1        0.1453
     35 H          62.1921   93.4723   -5.4660 H       1  UNL1        0.1453
@<TRIPOS>BOND
     1    31    32   am
     2    32    33    2
     3    32     1    1
     4     1     2   ar
     5     2     3   ar
     6     3     4   ar
     7     4     5   ar
     8     5     6   ar
     9     6     7   ar
    10     7     8   ar
    11     8    15    1
    12    15    16    1
    13    16    17    1
    14    17    18    1
    15    18    21    1
    16    21    22    1
    17    22    23    1
    18    23    24   ar
    19    24    25   ar
    20    25    26   ar
    21    26    27    1
    22    26    28   ar
    23    28    29    1
    24    28    30   ar
    25    18    19    1
    26    19    20    1
    27     8     9   ar
    28     9    10   ar
    29    10    11   ar
    30    11    12   ar
    31    12    13   ar
    32    13     1   ar
    33    13     5   ar
    34    12     7    1
    35    20    15    1
    36    30    23   ar
    37    31    34    1
    38    31    35    1
    39    11    14    1
@<TRIPOS>MOLECULE
*****
 35 39 0 0 0
SMALL
GASTEIGER

@<TRIPOS>ATOM
      1 C          45.4291   78.3100   20.2706 C.ar    1  UNL1        0.0560
      2 C          45.9408   76.9104   20.4411 C.ar    1  UNL1        0.0046
      3 C          46.1560   76.0389   19.2393 C.ar    1  UNL1        0.0017
      4 C          45.8594   76.5670   17.8671 C.ar    1  UNL1        0.0192
      5 C          45.3477   77.9667   17.6967 C.ar    1  UNL1        0.0830
      6 N          44.9703   78.7560   16.4782 N.ar    1  UNL1       -0.2410
      7 C          44.5219   80.1152   16.9269 C.ar    1  UNL1        0.1283
      8 C          44.0353   81.3133   16.1667 C.ar    1  UNL1        0.1526
      9 N          43.6489   82.5621   16.9022 N.ar    1  UNL1       -0.2091
     10 C          43.7491   82.6129   18.3980 C.ar    1  UNL1        0.1763
     11 N          44.2358   81.4148   19.1582 N.ar    1  UNL1       -0.3348
     12 C          44.6221   80.1660   18.4226 C.ar    1  UNL1        0.0799
     13 C          45.1325   78.8382   18.8984 C.ar    1  UNL1        0.0392
     14 H          44.3016   81.4482   20.1400 H       1  UNL1        0.1675
     15 N          43.9350   81.2625   14.6709 N.pl3   1  UNL1       -0.2891
     16 C          43.7977   79.9421   13.9728 C.3     1  UNL1        0.1095
     17 C          43.6974   79.8913   12.4770 C.3     1  UNL1        0.0939
     18 N          43.7345   81.1611   11.6793 N.3     1  UNL1       -0.2695
     19 C          43.8719   82.4816   12.3774 C.3     1  UNL1        0.0939
     20 C          43.9721   82.5323   13.8731 C.3     1  UNL1        0.1095
     21 C          43.6343   81.1103   10.1835 C.3     1  UNL1        0.0769
     22 C          44.8524   80.8143    9.3598 C.3     1  UNL1        0.0437
     23 C          45.1979   79.3961    9.0146 C.ar    1  UNL1       -0.0184
     24 C          45.8896   78.5262   10.0218 C.ar    1  UNL1       -0.0018
     25 C          46.2351   77.1079    9.6765 C.ar    1  UNL1        0.0316
     26 C          45.8889   76.5596    8.3240 C.ar    1  UNL1        0.1674
     27 F          46.2344   75.1414    7.9787 F       1  UNL1       -0.2018
     28 C          45.1972   77.4296    7.3166 C.ar    1  UNL1        0.1671
     29 F          44.8510   76.8813    5.9640 F       1  UNL1       -0.2018
     30 C          44.8517   78.8477    7.6619 C.ar    1  UNL1        0.0277
     31 N          46.1575   80.3120   21.7576 N.am    1  UNL1       -0.3253
     32 C          45.2139   79.1815   21.4724 C.2     1  UNL1        0.2428
     33 O          44.0551   78.9224   22.3889 O.2     1  UNL1       -0.2704
     34 H          46.0162   80.8840   22.5464 H       1  UNL1        0.1453
     35 H          46.9180   80.4821   21.1561 H       1  UNL1        0.1453
@<TRIPOS>BOND
     1    31    32   am
     2    32    33    2
     3    32     1    1
     4     1     2   ar
     5     2     3   ar
     6     3     4   ar
     7     4     5   ar
     8     5     6   ar
     9     6     7   ar
    10     7     8   ar
    11     8    15    1
    12    15    16    1
    13    16    17    1
    14    17    18    1
    15    18    21    1
    16    21    22    1
    17    22    23    1
    18    23    24   ar
    19    24    25   ar
    20    25    26   ar
    21    26    27    1
    22    26    28   ar
    23    28    29    1
    24    28    30   ar
    25    18    19    1
    26    19    20    1
    27     8     9   ar
    28     9    10   ar
    29    10    11   ar
    30    11    12   ar
    31    12    13   ar
    32    13     1   ar
    33    13     5   ar
    34    12     7    1
    35    20    15    1
    36    30    23   ar
    37    31    34    1
    38    31    35    1
    39    11    14    1
@<TRIPOS>MOLECULE
*****
 35 39 0 0 0
SMALL
GASTEIGER

@<TRIPOS>ATOM
      1 C          59.5789   87.6429    7.5939 C.ar    1  UNL1        0.0560
      2 C          59.0307   88.6221    6.5987 C.ar    1  UNL1        0.0046
      3 C          59.3577   90.0807    6.7234 C.ar    1  UNL1        0.0017
      4 C          60.2328   90.5601    7.8433 C.ar    1  UNL1        0.0192
      5 C          60.7810   89.5808    8.8385 C.ar    1  UNL1        0.0830
      6 N          61.6636   89.7571   10.0385 N.ar    1  UNL1       -0.2410
      7 C          61.8821   88.4074   10.6555 C.ar    1  UNL1        0.1283
      8 C          62.6652   87.9679   11.8570 C.ar    1  UNL1        0.1526
      9 N          62.7007   86.5180   12.2398 N.ar    1  UNL1       -0.2091
     10 C          61.9532   85.5077   11.4211 C.ar    1  UNL1        0.1763
     11 N          61.1701   85.9472   10.2196 N.ar    1  UNL1       -0.3348
     12 C          61.1345   87.3970    9.8368 C.ar    1  UNL1        0.0799
     13 C          60.4540   88.1222    8.7138 C.ar    1  UNL1        0.0392
     14 H          60.6794   85.2840    9.6823 H       1  UNL1        0.1675
     15 N          63.4127   88.9783   12.6757 N.pl3   1  UNL1       -0.2891
     16 C          63.4404   90.4162   12.2500 C.3     1  UNL1        0.1095
     17 C          64.1880   91.4266   13.0687 C.3     1  UNL1        0.0939
     18 N          64.9079   90.9989   14.3132 N.3     1  UNL1       -0.2695
     19 C          64.8803   89.5609   14.7390 C.3     1  UNL1        0.0939
     20 C          64.1327   88.5506   13.9203 C.3     1  UNL1        0.1095
     21 C          65.6555   92.0093   15.1319 C.3     1  UNL1        0.0769
     22 C          66.8473   92.7113   14.5515 C.3     1  UNL1        0.0437
     23 C          66.8708   93.0700   13.0953 C.ar    1  UNL1       -0.0184
     24 C          66.2908   94.3743   12.6347 C.ar    1  UNL1       -0.0018
     25 C          66.3144   94.7329   11.1783 C.ar    1  UNL1        0.0316
     26 C          66.9179   93.7872   10.1826 C.ar    1  UNL1        0.1674
     27 F          66.9414   94.1459    8.7263 F       1  UNL1       -0.2018
     28 C          67.4979   92.4828   10.6433 C.ar    1  UNL1        0.1671
     29 F          68.1015   91.5371    9.6476 F       1  UNL1       -0.2018
     30 C          67.4744   92.1242   12.0995 C.ar    1  UNL1        0.0277
     31 N          60.3242   85.2046    7.0944 N.am    1  UNL1       -0.3253
     32 C          59.2519   86.1842    7.4692 C.2     1  UNL1        0.2428
     33 O          57.8526   85.7053    7.7193 O.2     1  UNL1       -0.2704
     34 H          60.1096   84.2473    7.0126 H       1  UNL1        0.1453
     35 H          61.2426   85.5190    6.9303 H       1  UNL1        0.1453
@<TRIPOS>BOND
     1    31    32   am
     2    32    33    2
     3    32     1    1
     4     1     2   ar
     5     2     3   ar
     6     3     4   ar
     7     4     5   ar
     8     5     6   ar
     9     6     7   ar
    10     7     8   ar
    11     8    15    1
    12    15    16    1
    13    16    17    1
    14    17    18    1
    15    18    21    1
    16    21    22    1
    17    22    23    1
    18    23    24   ar
    19    24    25   ar
    20    25    26   ar
    21    26    27    1
    22    26    28   ar
    23    28    29    1
    24    28    30   ar
    25    18    19    1
    26    19    20    1
    27     8     9   ar
    28     9    10   ar
    29    10    11   ar
    30    11    12   ar
    31    12    13   ar
    32    13     1   ar
    33    13     5   ar
    34    12     7    1
    35    20    15    1
    36    30    23   ar
    37    31    34    1
    38    31    35    1
    39    11    14    1
@<TRIPOS>MOLECULE
*****
 35 39 0 0 0
SMALL
GASTEIGER

@<TRIPOS>ATOM
      1 C          60.3187   86.4131    7.8841 C.ar    1  UNL1        0.0560
      2 C          60.9610   85.2478    7.1916 C.ar    1  UNL1        0.0046
      3 C          62.3684   84.8560    7.5319 C.ar    1  UNL1        0.0017
      4 C          63.1334   85.6294    8.5646 C.ar    1  UNL1        0.0192
      5 C          62.4911   86.7947    9.2570 C.ar    1  UNL1        0.0830
      6 N          62.9933   87.7381   10.3095 N.ar    1  UNL1       -0.2410
      7 C          61.8963   88.7130   10.6197 C.ar    1  UNL1        0.1283
      8 C          61.8197   89.8672   11.5748 C.ar    1  UNL1        0.1526
      9 N          60.5628   90.6804   11.6691 N.ar    1  UNL1       -0.2091
     10 C          59.3826   90.3394   10.8083 C.ar    1  UNL1        0.1763
     11 N          59.4593   89.1853    9.8533 N.ar    1  UNL1       -0.3348
     12 C          60.7162   88.3721    9.7590 C.ar    1  UNL1        0.0799
     13 C          61.0837   87.1865    8.9168 C.ar    1  UNL1        0.0392
     14 H          58.6847   88.9615    9.2883 H       1  UNL1        0.1675
     15 N          62.9998   90.2081   12.4355 N.pl3   1  UNL1       -0.2891
     16 C          63.7270   91.5041   12.2321 C.3     1  UNL1        0.1095
     17 C          64.9072   91.8451   13.0929 C.3     1  UNL1        0.0939
     18 N          65.3602   90.8899   14.1571 N.3     1  UNL1       -0.2695
     19 C          64.6330   89.5938   14.3605 C.3     1  UNL1        0.0939
     20 C          63.4529   89.2530   13.4997 C.3     1  UNL1        0.1095
     21 C          66.5404   91.2309   15.0178 C.3     1  UNL1        0.0769
     22 C          67.6781   92.0265   14.4498 C.3     1  UNL1        0.0437
     23 C          67.6636   92.4300   13.0051 C.ar    1  UNL1       -0.0184
     24 C          68.3971   91.6060   11.9889 C.ar    1  UNL1       -0.0018
     25 C          68.3825   92.0096   10.5442 C.ar    1  UNL1        0.0316
     26 C          67.6343   93.2371   10.1159 C.ar    1  UNL1        0.1674
     27 F          67.6197   93.6406    8.6713 F       1  UNL1       -0.2018
     28 C          66.9007   94.0611   11.1322 C.ar    1  UNL1        0.1671
     29 F          66.1525   95.2886   10.7039 F       1  UNL1       -0.2018
     30 C          66.9153   93.6575   12.5768 C.ar    1  UNL1        0.0277
     31 N          58.6330   88.1465    6.9334 N.am    1  UNL1       -0.3253
     32 C          58.9113   86.8049    7.5438 C.2     1  UNL1        0.2428
     33 O          57.7822   85.8551    7.8140 O.2     1  UNL1       -0.2704
     34 H          57.7093   88.4036    6.7101 H       1  UNL1        0.1453
     35 H          59.3741   88.7698    6.7561 H       1  UNL1        0.1453
@<TRIPOS>BOND
     1    31    32   am
     2    32    33    2
     3    32     1    1
     4     1     2   ar
     5     2     3   ar
     6     3     4   ar
     7     4     5   ar
     8     5     6   ar
     9     6     7   ar
    10     7     8   ar
    11     8    15    1
    12    15    16    1
    13    16    17    1
    14    17    18    1
    15    18    21    1
    16    21    22    1
    17    22    23    1
    18    23    24   ar
    19    24    25   ar
    20    25    26   ar
    21    26    27    1
    22    26    28   ar
    23    28    29    1
    24    28    30   ar
    25    18    19    1
    26    19    20    1
    27     8     9   ar
    28     9    10   ar
    29    10    11   ar
    30    11    12   ar
    31    12    13   ar
    32    13     1   ar
    33    13     5   ar
    34    12     7    1
    35    20    15    1
    36    30    23   ar
    37    31    34    1
    38    31    35    1
    39    11    14    1
