@<TRIPOS>MOLECULE
*****
 31 35 0 0 0
SMALL
GASTEIGER

@<TRIPOS>ATOM
      1 C          72.0559   72.3911   15.7515 C.2     1  UNL1        0.3746
      2 N          72.9981   73.4424   16.2584 N.2     1  UNL1       -0.0309
      3 C          72.9014   74.6298   15.3470 C.2     1  UNL1        0.2321
      4 C          73.5962   75.9592   15.3533 C.2     1  UNL1        0.0500
      5 C          73.2890   76.9711   14.2894 C.2     1  UNL1        0.0046
      6 C          72.2871   76.6536   13.2193 C.2     1  UNL1        0.0400
      7 C          71.5922   75.3242   13.2130 C.3     1  UNL1        0.1086
      8 C          71.8994   74.3124   14.2768 C.2     1  UNL1        0.2179
      9 N          71.3769   72.9287   14.5269 N.2     1  UNL1       -0.0347
     10 C          70.4171   72.1267   18.2504 C.3     1  UNL1        0.0313
     11 C          71.0126   70.9071   17.6115 C.ar    1  UNL1       -0.0147
     12 C          70.7888   69.5555   18.2221 C.ar    1  UNL1       -0.0040
     13 C          71.3843   68.3360   17.5833 C.ar    1  UNL1       -0.0006
     14 C          72.2038   68.4682   16.3339 C.ar    1  UNL1       -0.0040
     15 C          72.4276   69.8199   15.7233 C.ar    1  UNL1       -0.0147
     16 C          73.2471   69.9520   14.4739 C.3     1  UNL1        0.0313
     17 C          71.8321   71.0393   16.3621 C.ar    1  UNL1        0.0805
     18 C          71.9799   77.6654   12.1555 C.2     1  UNL1        0.2470
     19 O          70.6011   77.7431   11.5699 O.2     1  UNL1       -0.2701
     20 N          73.0516   78.5996   11.6772 N.am    1  UNL1       -0.2661
     21 H          73.9566   78.5487   12.0615 H       1  UNL1        0.1566
     22 C          72.7444   79.6115   10.6133 C.ar    1  UNL1        0.1343
     23 C          72.5056   81.0443   10.9875 C.ar    1  UNL1        0.0345
     24 C          72.1984   82.0562    9.9238 C.ar    1  UNL1        0.0044
     25 C          72.1300   81.6353    8.4856 C.ar    1  UNL1        0.0178
     26 C          71.8229   82.6472    7.4218 C.ar    1  UNL1        0.0015
     27 C          71.7545   82.2263    5.9837 C.ar    1  UNL1        0.0001
     28 C          71.9933   80.7935    5.6094 C.ar    1  UNL1        0.0015
     29 C          72.3004   79.7816    6.6732 C.ar    1  UNL1        0.0191
     30 C          72.3688   80.2025    8.1113 C.ar    1  UNL1        0.0827
     31 N          72.6760   79.1906    9.1752 N.ar    1  UNL1       -0.2305
@<TRIPOS>BOND
     1    10    11    1
     2    11    12   ar
     3    12    13   ar
     4    13    14   ar
     5    14    15   ar
     6    15    16    1
     7    15    17   ar
     8    17     1    1
     9     1     2    2
    10     2     3    1
    11     3     4    2
    12     4     5    1
    13     5     6    2
    14     6    18    1
    15    18    19    2
    16    18    20   am
    17    20    22    1
    18    22    23   ar
    19    23    24   ar
    20    24    25   ar
    21    25    26   ar
    22    26    27   ar
    23    27    28   ar
    24    28    29   ar
    25    29    30   ar
    26    30    31   ar
    27     6     7    1
    28     7     8    1
    29     8     9    2
    30    17    11   ar
    31     9     1    1
    32     8     3    1
    33    31    22   ar
    34    30    25   ar
    35    20    21    1
@<TRIPOS>MOLECULE
*****
 31 35 0 0 0
SMALL
GASTEIGER

@<TRIPOS>ATOM
      1 C          60.3494   93.2647    2.3647 C.2     1  UNL1        0.3746
      2 N          58.9338   93.1547    2.8483 N.2     1  UNL1       -0.0309
      3 C          58.9007   92.1485    3.9603 C.2     1  UNL1        0.2321
      4 C          57.7804   91.6322    4.8137 C.2     1  UNL1        0.0500
      5 C          58.0554   90.6041    5.8708 C.2     1  UNL1        0.0046
      6 C          59.4506   90.0923    6.0745 C.2     1  UNL1        0.0400
      7 C          60.5709   90.6086    5.2210 C.3     1  UNL1        0.1086
      8 C          60.2960   91.6367    4.1639 C.2     1  UNL1        0.2179
      9 N          61.1913   92.3266    3.1778 N.2     1  UNL1       -0.0347
     10 C          60.2684   96.2450    2.6982 C.3     1  UNL1        0.0313
     11 C          60.7970   95.6466    1.4284 C.ar    1  UNL1       -0.0147
     12 C          61.2851   96.5382    0.3254 C.ar    1  UNL1       -0.0040
     13 C          61.8137   95.9397   -0.9444 C.ar    1  UNL1       -0.0006
     14 C          61.8541   94.4496   -1.1112 C.ar    1  UNL1       -0.0040
     15 C          61.3661   93.5579   -0.0082 C.ar    1  UNL1       -0.0147
     16 C          61.4066   92.0678   -0.1750 C.3     1  UNL1        0.0313
     17 C          60.8375   94.1564    1.2616 C.ar    1  UNL1        0.0805
     18 C          59.7255   89.0643    7.1316 C.2     1  UNL1        0.2470
     19 O          58.8889   87.8213    7.2046 O.2     1  UNL1       -0.2701
     20 N          60.8370   89.2790    8.1156 N.am    1  UNL1       -0.2661
     21 H          61.3861   90.0948    8.0677 H       1  UNL1        0.1566
     22 C          61.1119   88.2509    9.1728 C.ar    1  UNL1        0.1343
     23 C          60.5302   88.4129   10.5458 C.ar    1  UNL1        0.0345
     24 C          60.8050   87.3849   11.6029 C.ar    1  UNL1        0.0044
     25 C          61.6616   86.1947   11.2870 C.ar    1  UNL1        0.0178
     26 C          61.9364   85.1666   12.3441 C.ar    1  UNL1        0.0015
     27 C          62.7930   83.9765   12.0281 C.ar    1  UNL1        0.0001
     28 C          63.3747   83.8145   10.6550 C.ar    1  UNL1        0.0015
     29 C          63.0999   84.8425    9.5979 C.ar    1  UNL1        0.0191
     30 C          62.2433   86.0326    9.9139 C.ar    1  UNL1        0.0827
     31 N          61.9685   87.0608    8.8568 N.ar    1  UNL1       -0.2305
@<TRIPOS>BOND
     1    10    11    1
     2    11    12   ar
     3    12    13   ar
     4    13    14   ar
     5    14    15   ar
     6    15    16    1
     7    15    17   ar
     8    17     1    1
     9     1     2    2
    10     2     3    1
    11     3     4    2
    12     4     5    1
    13     5     6    2
    14     6    18    1
    15    18    19    2
    16    18    20   am
    17    20    22    1
    18    22    23   ar
    19    23    24   ar
    20    24    25   ar
    21    25    26   ar
    22    26    27   ar
    23    27    28   ar
    24    28    29   ar
    25    29    30   ar
    26    30    31   ar
    27     6     7    1
    28     7     8    1
    29     8     9    2
    30    17    11   ar
    31     9     1    1
    32     8     3    1
    33    31    22   ar
    34    30    25   ar
    35    20    21    1
@<TRIPOS>MOLECULE
*****
 31 35 0 0 0
SMALL
GASTEIGER

@<TRIPOS>ATOM
      1 C          72.7067   80.1989    8.9993 C.2     1  UNL1        0.3746
      2 N          73.2281   80.9097   10.2129 N.2     1  UNL1       -0.0309
      3 C          73.1162   79.9754   11.3811 C.2     1  UNL1        0.2321
      4 C          73.4758   80.1312   12.8290 C.2     1  UNL1        0.0500
      5 C          73.2448   78.9988   13.7853 C.2     1  UNL1        0.0046
      6 C          72.6542   77.7107   13.2936 C.2     1  UNL1        0.0400
      7 C          72.2946   77.5548   11.8457 C.3     1  UNL1        0.1086
      8 C          72.5256   78.6871   10.8895 C.2     1  UNL1        0.2179
      9 N          72.2726   78.8253    9.4174 N.2     1  UNL1       -0.0347
     10 C          73.5620   78.5325    6.6559 C.3     1  UNL1        0.0313
     11 C          73.0601   79.9295    6.4395 C.ar    1  UNL1       -0.0147
     12 C          72.9859   80.4932    5.0515 C.ar    1  UNL1       -0.0040
     13 C          72.4841   81.8901    4.8352 C.ar    1  UNL1       -0.0006
     14 C          72.0564   82.7232    6.0069 C.ar    1  UNL1       -0.0040
     15 C          72.1306   82.1595    7.3949 C.ar    1  UNL1       -0.0147
     16 C          71.7030   82.9927    8.5667 C.3     1  UNL1        0.0313
     17 C          72.6325   80.7626    7.6112 C.ar    1  UNL1        0.0805
     18 C          72.4232   76.5783   14.2498 C.2     1  UNL1        0.2470
     19 O          72.9399   76.6663   15.6553 O.2     1  UNL1       -0.2701
     20 N          71.6755   75.3580   13.8007 N.am    1  UNL1       -0.2661
     21 H          71.3363   75.3003   12.8782 H       1  UNL1        0.1566
     22 C          71.4445   74.2257   14.7570 C.ar    1  UNL1        0.1343
     23 C          70.5198   74.4065   15.9241 C.ar    1  UNL1        0.0345
     24 C          70.2888   73.2742   16.8804 C.ar    1  UNL1        0.0044
     25 C          70.9824   71.9610   16.6696 C.ar    1  UNL1        0.0178
     26 C          70.7514   70.8288   17.6259 C.ar    1  UNL1        0.0015
     27 C          71.4451   69.5157   17.4150 C.ar    1  UNL1        0.0001
     28 C          72.3698   69.3348   16.2479 C.ar    1  UNL1        0.0015
     29 C          72.6008   70.4671   15.2916 C.ar    1  UNL1        0.0191
     30 C          71.9071   71.7802   15.5025 C.ar    1  UNL1        0.0827
     31 N          72.1381   72.9126   14.5461 N.ar    1  UNL1       -0.2305
@<TRIPOS>BOND
     1    10    11    1
     2    11    12   ar
     3    12    13   ar
     4    13    14   ar
     5    14    15   ar
     6    15    16    1
     7    15    17   ar
     8    17     1    1
     9     1     2    2
    10     2     3    1
    11     3     4    2
    12     4     5    1
    13     5     6    2
    14     6    18    1
    15    18    19    2
    16    18    20   am
    17    20    22    1
    18    22    23   ar
    19    23    24   ar
    20    24    25   ar
    21    25    26   ar
    22    26    27   ar
    23    27    28   ar
    24    28    29   ar
    25    29    30   ar
    26    30    31   ar
    27     6     7    1
    28     7     8    1
    29     8     9    2
    30    17    11   ar
    31     9     1    1
    32     8     3    1
    33    31    22   ar
    34    30    25   ar
    35    20    21    1
@<TRIPOS>MOLECULE
*****
 31 35 0 0 0
SMALL
GASTEIGER

@<TRIPOS>ATOM
      1 C          63.2226   83.7445   13.2611 C.2     1  UNL1        0.3746
      2 N          63.2842   84.1222   14.7114 N.2     1  UNL1       -0.0309
      3 C          63.5413   85.5975   14.7958 C.2     1  UNL1        0.2321
      4 C          63.6995   86.5236   15.9651 C.2     1  UNL1        0.0500
      5 C          63.9549   87.9839   15.7362 C.2     1  UNL1        0.0046
      6 C          64.0521   88.5181   14.3380 C.2     1  UNL1        0.0400
      7 C          63.8940   87.5920   13.1686 C.3     1  UNL1        0.1086
      8 C          63.6386   86.1318   13.3974 C.2     1  UNL1        0.2179
      9 N          63.4416   84.9866   12.4490 N.2     1  UNL1       -0.0347
     10 C          64.2419   83.0084   10.5372 C.3     1  UNL1        0.0313
     11 C          63.4935   81.9987   11.3561 C.ar    1  UNL1       -0.0147
     12 C          63.2547   80.6210   10.8131 C.ar    1  UNL1       -0.0040
     13 C          62.5064   79.6114   11.6319 C.ar    1  UNL1       -0.0006
     14 C          61.9967   79.9795   12.9938 C.ar    1  UNL1       -0.0040
     15 C          62.2354   81.3572   13.5369 C.ar    1  UNL1       -0.0147
     16 C          61.7258   81.7252   14.8988 C.3     1  UNL1        0.0313
     17 C          62.9838   82.3668   12.7180 C.ar    1  UNL1        0.0805
     18 C          64.3075   89.9783   14.1091 C.2     1  UNL1        0.2470
     19 O          63.3558   91.0009   14.6557 O.2     1  UNL1       -0.2701
     20 N          65.5146   90.4161   13.3336 N.am    1  UNL1       -0.2661
     21 H          66.1392   89.7450   12.9749 H       1  UNL1        0.1566
     22 C          65.7700   91.8764   13.1048 C.ar    1  UNL1        0.1343
     23 C          66.2557   92.7385   14.2321 C.ar    1  UNL1        0.0345
     24 C          66.5111   94.1988   14.0033 C.ar    1  UNL1        0.0044
     25 C          66.2807   94.7970   12.6471 C.ar    1  UNL1        0.0178
     26 C          66.5361   96.2573   12.4183 C.ar    1  UNL1        0.0015
     27 C          66.3057   96.8554   11.0622 C.ar    1  UNL1        0.0001
     28 C          65.8200   95.9933    9.9349 C.ar    1  UNL1        0.0015
     29 C          65.5646   94.5331   10.1637 C.ar    1  UNL1        0.0191
     30 C          65.7950   93.9349   11.5198 C.ar    1  UNL1        0.0827
     31 N          65.5396   92.4746   11.7486 N.ar    1  UNL1       -0.2305
@<TRIPOS>BOND
     1    10    11    1
     2    11    12   ar
     3    12    13   ar
     4    13    14   ar
     5    14    15   ar
     6    15    16    1
     7    15    17   ar
     8    17     1    1
     9     1     2    2
    10     2     3    1
    11     3     4    2
    12     4     5    1
    13     5     6    2
    14     6    18    1
    15    18    19    2
    16    18    20   am
    17    20    22    1
    18    22    23   ar
    19    23    24   ar
    20    24    25   ar
    21    25    26   ar
    22    26    27   ar
    23    27    28   ar
    24    28    29   ar
    25    29    30   ar
    26    30    31   ar
    27     6     7    1
    28     7     8    1
    29     8     9    2
    30    17    11   ar
    31     9     1    1
    32     8     3    1
    33    31    22   ar
    34    30    25   ar
    35    20    21    1
@<TRIPOS>MOLECULE
*****
 31 35 0 0 0
SMALL
GASTEIGER

@<TRIPOS>ATOM
      1 C          72.6732   80.1667    8.7896 C.2     1  UNL1        0.3746
      2 N          73.3908   80.7396    9.9757 N.2     1  UNL1       -0.0309
      3 C          73.1674   79.8213   11.1406 C.2     1  UNL1        0.2321
      4 C          73.6327   79.8762   12.5655 C.2     1  UNL1        0.0500
      5 C          73.2422   78.7907   13.5243 C.2     1  UNL1        0.0046
      6 C          72.3865   77.6503   13.0581 C.2     1  UNL1        0.0400
      7 C          71.9213   77.5954   11.6332 C.3     1  UNL1        0.1086
      8 C          72.3117   78.6809   10.6744 C.2     1  UNL1        0.2179
      9 N          72.0063   78.8944    9.2214 N.2     1  UNL1       -0.0347
     10 C          71.7174   82.9839    8.4027 C.3     1  UNL1        0.0313
     11 C          72.1521   82.1703    7.2198 C.ar    1  UNL1       -0.0147
     12 C          72.1089   82.7653    5.8436 C.ar    1  UNL1       -0.0040
     13 C          72.5436   81.9517    4.6608 C.ar    1  UNL1       -0.0006
     14 C          73.0215   80.5431    4.8543 C.ar    1  UNL1       -0.0040
     15 C          73.0647   79.9481    6.2305 C.ar    1  UNL1       -0.0147
     16 C          73.5426   78.5395    6.4239 C.3     1  UNL1        0.0313
     17 C          72.6300   80.7617    7.4133 C.ar    1  UNL1        0.0805
     18 C          71.9961   76.5649   14.0169 C.2     1  UNL1        0.2470
     19 O          71.3024   76.9120   15.3008 O.2     1  UNL1       -0.2701
     20 N          72.2992   75.1323   13.6918 N.am    1  UNL1       -0.2661
     21 H          72.7545   74.9044   12.8492 H       1  UNL1        0.1566
     22 C          71.9087   74.0468   14.6507 C.ar    1  UNL1        0.1343
     23 C          71.5515   72.6840   14.1358 C.ar    1  UNL1        0.0345
     24 C          71.1610   71.5986   15.0945 C.ar    1  UNL1        0.0044
     25 C          71.1278   71.8759   16.5683 C.ar    1  UNL1        0.0178
     26 C          70.7373   70.7904   17.5271 C.ar    1  UNL1        0.0015
     27 C          70.7041   71.0678   19.0009 C.ar    1  UNL1        0.0001
     28 C          71.0613   72.4306   19.5158 C.ar    1  UNL1        0.0015
     29 C          71.4518   73.5160   18.5570 C.ar    1  UNL1        0.0191
     30 C          71.4850   73.2387   17.0833 C.ar    1  UNL1        0.0827
     31 N          71.8755   74.3241   16.1244 N.ar    1  UNL1       -0.2305
@<TRIPOS>BOND
     1    10    11    1
     2    11    12   ar
     3    12    13   ar
     4    13    14   ar
     5    14    15   ar
     6    15    16    1
     7    15    17   ar
     8    17     1    1
     9     1     2    2
    10     2     3    1
    11     3     4    2
    12     4     5    1
    13     5     6    2
    14     6    18    1
    15    18    19    2
    16    18    20   am
    17    20    22    1
    18    22    23   ar
    19    23    24   ar
    20    24    25   ar
    21    25    26   ar
    22    26    27   ar
    23    27    28   ar
    24    28    29   ar
    25    29    30   ar
    26    30    31   ar
    27     6     7    1
    28     7     8    1
    29     8     9    2
    30    17    11   ar
    31     9     1    1
    32     8     3    1
    33    31    22   ar
    34    30    25   ar
    35    20    21    1
@<TRIPOS>MOLECULE
*****
 31 35 0 0 0
SMALL
GASTEIGER

@<TRIPOS>ATOM
      1 C          62.2467   87.0869   11.4886 C.2     1  UNL1        0.3746
      2 N          60.9916   86.4139   11.0178 N.2     1  UNL1       -0.0309
      3 C          60.4919   87.1553    9.8134 C.2     1  UNL1        0.2321
      4 C          59.2975   86.9466    8.9304 C.2     1  UNL1        0.0500
      5 C          59.0493   87.8690    7.7739 C.2     1  UNL1        0.0046
      6 C          59.9957   89.0002    7.5003 C.2     1  UNL1        0.0400
      7 C          61.1902   89.2090    8.3833 C.3     1  UNL1        0.1086
      8 C          61.4383   88.2866    9.5398 C.2     1  UNL1        0.2179
      9 N          62.5228   88.2442   10.5752 N.2     1  UNL1       -0.0347
     10 C          63.4936   89.1731   13.2474 C.3     1  UNL1        0.0313
     11 C          63.7031   87.7179   13.5456 C.ar    1  UNL1       -0.0147
     12 C          64.5360   87.3060   14.7231 C.ar    1  UNL1       -0.0040
     13 C          64.7454   85.8509   15.0212 C.ar    1  UNL1       -0.0006
     14 C          64.1220   84.8079   14.1418 C.ar    1  UNL1       -0.0040
     15 C          63.2891   85.2198   12.9643 C.ar    1  UNL1       -0.0147
     16 C          62.6657   84.1767   12.0849 C.3     1  UNL1        0.0313
     17 C          63.0797   86.6749   12.6662 C.ar    1  UNL1        0.0805
     18 C          59.7476   89.9226    6.3438 C.2     1  UNL1        0.2470
     19 O          58.3440   90.1983    5.8921 O.2     1  UNL1       -0.2701
     20 N          60.9030   90.5693    5.6390 N.am    1  UNL1       -0.2661
     21 H          61.8242   90.3884    5.9354 H       1  UNL1        0.1566
     22 C          60.6548   91.4918    4.4824 C.ar    1  UNL1        0.1343
     23 C          59.2746   92.0217    4.2285 C.ar    1  UNL1        0.0345
     24 C          59.0264   92.9441    3.0720 C.ar    1  UNL1        0.0044
     25 C          60.1583   93.3366    2.1694 C.ar    1  UNL1        0.0178
     26 C          59.9101   94.2590    1.0129 C.ar    1  UNL1        0.0015
     27 C          61.0420   94.6515    0.1103 C.ar    1  UNL1        0.0001
     28 C          62.4221   94.1216    0.3642 C.ar    1  UNL1        0.0015
     29 C          62.6704   93.1992    1.5207 C.ar    1  UNL1        0.0191
     30 C          61.5385   92.8067    2.4233 C.ar    1  UNL1        0.0827
     31 N          61.7867   91.8843    3.5798 N.ar    1  UNL1       -0.2305
@<TRIPOS>BOND
     1    10    11    1
     2    11    12   ar
     3    12    13   ar
     4    13    14   ar
     5    14    15   ar
     6    15    16    1
     7    15    17   ar
     8    17     1    1
     9     1     2    2
    10     2     3    1
    11     3     4    2
    12     4     5    1
    13     5     6    2
    14     6    18    1
    15    18    19    2
    16    18    20   am
    17    20    22    1
    18    22    23   ar
    19    23    24   ar
    20    24    25   ar
    21    25    26   ar
    22    26    27   ar
    23    27    28   ar
    24    28    29   ar
    25    29    30   ar
    26    30    31   ar
    27     6     7    1
    28     7     8    1
    29     8     9    2
    30    17    11   ar
    31     9     1    1
    32     8     3    1
    33    31    22   ar
    34    30    25   ar
    35    20    21    1
@<TRIPOS>MOLECULE
*****
 31 35 0 0 0
SMALL
GASTEIGER

@<TRIPOS>ATOM
      1 C          62.2494   87.0867   11.4917 C.2     1  UNL1        0.3746
      2 N          60.9952   86.4153   11.0164 N.2     1  UNL1       -0.0309
      3 C          60.5007   87.1573    9.8102 C.2     1  UNL1        0.2321
      4 C          59.3092   86.9501    8.9229 C.2     1  UNL1        0.0500
      5 C          59.0664   87.8729    7.7655 C.2     1  UNL1        0.0046
      6 C          60.0151   89.0029    7.4955 C.2     1  UNL1        0.0400
      7 C          61.2066   89.2102    8.3828 C.3     1  UNL1        0.1086
      8 C          61.4494   88.2874    9.5401 C.2     1  UNL1        0.2179
      9 N          62.5302   88.2437   10.5794 N.2     1  UNL1       -0.0347
     10 C          62.6793   84.1760   12.0776 C.3     1  UNL1        0.0313
     11 C          63.2925   85.2183   12.9652 C.ar    1  UNL1       -0.0147
     12 C          64.1207   84.8051   14.1456 C.ar    1  UNL1       -0.0040
     13 C          64.7338   85.8474   15.0332 C.ar    1  UNL1       -0.0006
     14 C          64.5189   87.3027   14.7402 C.ar    1  UNL1       -0.0040
     15 C          63.6908   87.7158   13.5598 C.ar    1  UNL1       -0.0147
     16 C          63.4758   89.1711   13.2669 C.3     1  UNL1        0.0313
     17 C          63.0776   86.6736   12.6723 C.ar    1  UNL1        0.0805
     18 C          59.7722   89.9257    6.3381 C.2     1  UNL1        0.2470
     19 O          58.3710   90.1977    5.8770 O.2     1  UNL1       -0.2701
     20 N          60.9306   90.5764    5.6418 N.am    1  UNL1       -0.2661
     21 H          61.8502   90.3978    5.9444 H       1  UNL1        0.1566
     22 C          60.6877   91.4992    4.4844 C.ar    1  UNL1        0.1343
     23 C          59.3088   92.0293    4.2245 C.ar    1  UNL1        0.0345
     24 C          59.0658   92.9521    3.0672 C.ar    1  UNL1        0.0044
     25 C          60.2018   93.3447    2.1697 C.ar    1  UNL1        0.0178
     26 C          59.9589   94.2674    1.0123 C.ar    1  UNL1        0.0015
     27 C          61.0949   94.6600    0.1149 C.ar    1  UNL1        0.0001
     28 C          62.4738   94.1299    0.3748 C.ar    1  UNL1        0.0015
     29 C          62.7167   93.2071    1.5321 C.ar    1  UNL1        0.0191
     30 C          61.5807   92.8145    2.4296 C.ar    1  UNL1        0.0827
     31 N          61.8236   91.8917    3.5870 N.ar    1  UNL1       -0.2305
@<TRIPOS>BOND
     1    10    11    1
     2    11    12   ar
     3    12    13   ar
     4    13    14   ar
     5    14    15   ar
     6    15    16    1
     7    15    17   ar
     8    17     1    1
     9     1     2    2
    10     2     3    1
    11     3     4    2
    12     4     5    1
    13     5     6    2
    14     6    18    1
    15    18    19    2
    16    18    20   am
    17    20    22    1
    18    22    23   ar
    19    23    24   ar
    20    24    25   ar
    21    25    26   ar
    22    26    27   ar
    23    27    28   ar
    24    28    29   ar
    25    29    30   ar
    26    30    31   ar
    27     6     7    1
    28     7     8    1
    29     8     9    2
    30    17    11   ar
    31     9     1    1
    32     8     3    1
    33    31    22   ar
    34    30    25   ar
    35    20    21    1
@<TRIPOS>MOLECULE
*****
 31 35 0 0 0
SMALL
GASTEIGER

@<TRIPOS>ATOM
      1 C          60.1923   93.5573    1.0314 C.2     1  UNL1        0.3746
      2 N          60.0018   95.0441    0.9746 N.2     1  UNL1       -0.0309
      3 C          58.9422   95.3370   -0.0459 C.2     1  UNL1        0.2321
      4 C          58.3401   96.6240   -0.5267 C.2     1  UNL1        0.0500
      5 C          57.2737   96.6052   -1.5814 C.2     1  UNL1        0.0046
      6 C          56.8093   95.2994   -2.1553 C.2     1  UNL1        0.0400
      7 C          57.4113   94.0124   -1.6745 C.3     1  UNL1        0.1086
      8 C          58.4778   94.0312   -0.6198 C.2     1  UNL1        0.2179
      9 N          59.2504   92.9313    0.0460 N.2     1  UNL1       -0.0347
     10 C          59.2471   92.3795    3.6235 C.3     1  UNL1        0.0313
     11 C          60.6831   92.2361    3.2140 C.ar    1  UNL1       -0.0147
     12 C          61.6463   91.5039    4.1005 C.ar    1  UNL1       -0.0040
     13 C          63.0821   91.3606    3.6909 C.ar    1  UNL1       -0.0006
     14 C          63.5547   91.9495    2.3949 C.ar    1  UNL1       -0.0040
     15 C          62.5915   92.6817    1.5083 C.ar    1  UNL1       -0.0147
     16 C          63.0641   93.2706    0.2123 C.3     1  UNL1        0.0313
     17 C          61.1557   92.8250    1.9179 C.ar    1  UNL1        0.0805
     18 C          55.7429   95.2807   -3.2099 C.2     1  UNL1        0.2470
     19 O          55.6230   94.1056   -4.1346 O.2     1  UNL1       -0.2701
     20 N          54.7963   96.4370   -3.3401 N.am    1  UNL1       -0.2661
     21 H          54.8750   97.2083   -2.7332 H       1  UNL1        0.1566
     22 C          53.7299   96.4182   -4.3948 C.ar    1  UNL1        0.1343
     23 C          54.1101   96.4136   -5.8458 C.ar    1  UNL1        0.0345
     24 C          53.0437   96.3948   -6.9005 C.ar    1  UNL1        0.0044
     25 C          51.5970   96.3807   -6.5043 C.ar    1  UNL1        0.0178
     26 C          50.5307   96.3619   -7.5590 C.ar    1  UNL1        0.0015
     27 C          49.0841   96.3477   -7.1627 C.ar    1  UNL1        0.0001
     28 C          48.7038   96.3524   -5.7117 C.ar    1  UNL1        0.0015
     29 C          49.7702   96.3712   -4.6570 C.ar    1  UNL1        0.0191
     30 C          51.2168   96.3853   -5.0533 C.ar    1  UNL1        0.0827
     31 N          52.2833   96.4041   -3.9985 N.ar    1  UNL1       -0.2305
@<TRIPOS>BOND
     1    10    11    1
     2    11    12   ar
     3    12    13   ar
     4    13    14   ar
     5    14    15   ar
     6    15    16    1
     7    15    17   ar
     8    17     1    1
     9     1     2    2
    10     2     3    1
    11     3     4    2
    12     4     5    1
    13     5     6    2
    14     6    18    1
    15    18    19    2
    16    18    20   am
    17    20    22    1
    18    22    23   ar
    19    23    24   ar
    20    24    25   ar
    21    25    26   ar
    22    26    27   ar
    23    27    28   ar
    24    28    29   ar
    25    29    30   ar
    26    30    31   ar
    27     6     7    1
    28     7     8    1
    29     8     9    2
    30    17    11   ar
    31     9     1    1
    32     8     3    1
    33    31    22   ar
    34    30    25   ar
    35    20    21    1
@<TRIPOS>MOLECULE
*****
 31 35 0 0 0
SMALL
GASTEIGER

@<TRIPOS>ATOM
      1 C          60.1025   93.1663    2.4396 C.2     1  UNL1        0.3746
      2 N          58.7046   92.9497    2.9384 N.2     1  UNL1       -0.0309
      3 C          58.7641   91.9726    4.0749 C.2     1  UNL1        0.2321
      4 C          57.6972   91.3854    4.9507 C.2     1  UNL1        0.0500
      5 C          58.0651   90.4110    6.0301 C.2     1  UNL1        0.0046
      6 C          59.4999   90.0236    6.2337 C.2     1  UNL1        0.0400
      7 C          60.5668   90.6108    5.3579 C.3     1  UNL1        0.1086
      8 C          60.1989   91.5852    4.2785 C.2     1  UNL1        0.2179
      9 N          61.0261   92.3230    3.2678 N.2     1  UNL1       -0.0347
     10 C          60.8843   91.9951   -0.2095 C.3     1  UNL1        0.0313
     11 C          60.8970   93.4823   -0.0138 C.ar    1  UNL1       -0.0147
     12 C          61.3006   94.3838   -1.1427 C.ar    1  UNL1       -0.0040
     13 C          61.3134   95.8709   -0.9470 C.ar    1  UNL1       -0.0006
     14 C          60.9225   96.4565    0.3775 C.ar    1  UNL1       -0.0040
     15 C          60.5189   95.5549    1.5063 C.ar    1  UNL1       -0.0147
     16 C          60.1281   96.1405    2.8308 C.3     1  UNL1        0.0313
     17 C          60.5062   94.0679    1.3107 C.ar    1  UNL1        0.0805
     18 C          59.8677   89.0492    7.3131 C.2     1  UNL1        0.2470
     19 O          59.0795   87.7842    7.4820 O.2     1  UNL1       -0.2701
     20 N          61.0238   89.3397    8.2236 N.am    1  UNL1       -0.2661
     21 H          61.5412   90.1700    8.1128 H       1  UNL1        0.1566
     22 C          61.3916   88.3652    9.3030 C.ar    1  UNL1        0.1343
     23 C          60.8985   86.9502    9.2358 C.ar    1  UNL1        0.0345
     24 C          61.2663   85.9757   10.3152 C.ar    1  UNL1        0.0044
     25 C          62.1272   86.4162   11.4618 C.ar    1  UNL1        0.0178
     26 C          62.4950   85.4417   12.5412 C.ar    1  UNL1        0.0015
     27 C          63.3559   85.8822   13.6878 C.ar    1  UNL1        0.0001
     28 C          63.8491   87.2973   13.7550 C.ar    1  UNL1        0.0015
     29 C          63.4813   88.2717   12.6756 C.ar    1  UNL1        0.0191
     30 C          62.6204   87.8312   11.5291 C.ar    1  UNL1        0.0827
     31 N          62.2525   88.8057   10.4496 N.ar    1  UNL1       -0.2305
@<TRIPOS>BOND
     1    10    11    1
     2    11    12   ar
     3    12    13   ar
     4    13    14   ar
     5    14    15   ar
     6    15    16    1
     7    15    17   ar
     8    17     1    1
     9     1     2    2
    10     2     3    1
    11     3     4    2
    12     4     5    1
    13     5     6    2
    14     6    18    1
    15    18    19    2
    16    18    20   am
    17    20    22    1
    18    22    23   ar
    19    23    24   ar
    20    24    25   ar
    21    25    26   ar
    22    26    27   ar
    23    27    28   ar
    24    28    29   ar
    25    29    30   ar
    26    30    31   ar
    27     6     7    1
    28     7     8    1
    29     8     9    2
    30    17    11   ar
    31     9     1    1
    32     8     3    1
    33    31    22   ar
    34    30    25   ar
    35    20    21    1
