@<TRIPOS>MOLECULE
*****
 47 51 0 0 0
SMALL
GASTEIGER

@<TRIPOS>ATOM
      1 C          62.7971   86.1285   12.1623 C.3     1  UNL1        0.1934
      2 N          62.4740   85.6839   10.7666 N.ar    1  UNL1       -0.2979
      3 C          61.2817   86.2522   10.0555 C.ar    1  UNL1        0.0786
      4 C          60.9586   85.8076    8.6598 C.ar    1  UNL1        0.0574
      5 C          61.8277   84.7947    7.9752 C.ar    1  UNL1        0.2786
      6 O          61.5046   84.3501    6.5796 O.2     1  UNL1       -0.2654
      7 N          63.0199   84.2264    8.6863 N.ar    1  UNL1       -0.1847
      8 C          63.3431   84.6711   10.0820 C.ar    1  UNL1        0.1750
      9 C          59.7663   86.3759    7.9488 C.3     1  UNL1        0.0622
     10 C          59.6955   87.8462    7.6603 C.ar    1  UNL1        0.0220
     11 C          60.1484   88.9467    8.5735 C.ar    1  UNL1        0.1177
     12 N          59.8922   90.2548    7.8856 N.ar    1  UNL1       -0.1679
     13 N          59.2810   89.9628    6.5472 N.ar    1  UNL1       -0.2477
     14 C          58.8644   90.9806    5.5272 C.3     1  UNL1        0.1537
     15 C          59.1594   88.4742    6.4080 C.ar    1  UNL1        0.0927
     16 S          64.5353   84.1028   10.7931 S.3     1  UNL1       -0.0724
     17 C          64.5755   82.6446   11.1424 C.3     1  UNL1        0.0913
     18 C          63.5305   82.0608   12.0463 C.ar    1  UNL1       -0.0108
     19 C          63.0419   80.6605   11.8216 C.ar    1  UNL1       -0.0011
     20 C          61.9968   80.0767   12.7255 C.ar    1  UNL1        0.0293
     21 C          61.4403   80.8931   13.8541 C.ar    1  UNL1        0.1401
     22 F          60.3953   80.3094   14.7579 F       1  UNL1       -0.2042
     23 C          61.9289   82.2935   14.0787 C.ar    1  UNL1        0.0293
     24 C          62.9740   82.8773   13.1749 C.ar    1  UNL1       -0.0011
     25 N          63.5135   88.1176   13.6724 N.am    1  UNL1       -0.2655
     26 C          62.7083   87.5811   12.5261 C.2     1  UNL1        0.2494
     27 O          61.8145   88.4970   11.7438 O.2     1  UNL1       -0.2727
     28 C          64.4074   87.2017   14.4547 C.3     1  UNL1        0.1796
     29 C          62.6860   86.3157   17.9191 C.3     1  UNL1        0.1150
     30 N          63.2429   87.1106   16.7754 N.am    1  UNL1       -0.2746
     31 C          63.1923   88.6094   16.8088 C.3     1  UNL1        0.1150
     32 C          63.8505   86.4068   15.5984 C.2     1  UNL1        0.2460
     33 O          63.9011   84.9080   15.5650 O.2     1  UNL1       -0.2730
     34 C          63.4248   89.5701   14.0363 C.3     1  UNL1        0.1207
     35 C          64.0838   90.6020   13.1697 C.ar    1  UNL1       -0.0023
     36 C          65.2909   91.3399   13.6681 C.ar    1  UNL1       -0.0026
     37 C          65.9499   92.3717   12.8015 C.ar    1  UNL1       -0.0003
     38 C          65.4018   92.6657   11.4365 C.ar    1  UNL1       -0.0000
     39 C          64.1947   91.9279   10.9382 C.ar    1  UNL1       -0.0003
     40 C          63.5357   90.8960   11.8047 C.ar    1  UNL1       -0.0026
     41 C          66.0608   93.6977   10.5700 C.ar    1  UNL1        0.0001
     42 C          67.2628   93.3321    9.7505 C.ar    1  UNL1        0.0009
     43 C          67.9218   94.3640    8.8839 C.ar    1  UNL1        0.0114
     44 C          67.3788   95.7615    8.8369 C.ar    1  UNL1        0.0577
     45 CL         68.0378   96.7934    7.9703 Cl      1  UNL1       -0.0822
     46 C          66.1767   96.1270    9.6564 C.ar    1  UNL1        0.0114
     47 C          65.5178   95.0951   10.5229 C.ar    1  UNL1        0.0009
@<TRIPOS>BOND
     1    29    30    1
     2    30    31    1
     3    30    32   am
     4    32    33    2
     5    32    28    1
     6    28    25    1
     7    25    34    1
     8    34    35    1
     9    35    36   ar
    10    36    37   ar
    11    37    38   ar
    12    38    41    1
    13    41    42   ar
    14    42    43   ar
    15    43    44   ar
    16    44    45    1
    17    44    46   ar
    18    46    47   ar
    19    38    39   ar
    20    39    40   ar
    21    25    26   am
    22    26    27    2
    23    26     1    1
    24     1     2    1
    25     2     3   ar
    26     3     4   ar
    27     4     9    1
    28     9    10    1
    29    10    11   ar
    30    11    12   ar
    31    12    13   ar
    32    13    14    1
    33    13    15   ar
    34     4     5   ar
    35     5     6    2
    36     5     7   ar
    37     7     8   ar
    38     8    16    1
    39    16    17    1
    40    17    18    1
    41    18    19   ar
    42    19    20   ar
    43    20    21   ar
    44    21    22    1
    45    21    23   ar
    46    23    24   ar
    47    40    35   ar
    48     8     2   ar
    49    24    18   ar
    50    47    41   ar
    51    15    10   ar
@<TRIPOS>MOLECULE
*****
 47 51 0 0 0
SMALL
GASTEIGER

@<TRIPOS>ATOM
      1 C          63.5780   88.4697   13.0760 C.3     1  UNL1        0.1934
      2 N          64.0067   89.6047   13.9580 N.ar    1  UNL1       -0.2979
      3 C          64.9075   90.6756   13.4175 C.ar    1  UNL1        0.0786
      4 C          65.3363   91.8106   14.2994 C.ar    1  UNL1        0.0574
      5 C          64.8643   91.8749   15.7218 C.ar    1  UNL1        0.2786
      6 O          65.2931   93.0099   16.6038 O.2     1  UNL1       -0.2654
      7 N          63.9636   90.8041   16.2623 N.ar    1  UNL1       -0.1847
      8 C          63.5348   89.6690   15.3803 C.ar    1  UNL1        0.1750
      9 C          66.2370   92.8814   13.7590 C.3     1  UNL1        0.0622
     10 C          66.5134   92.9564   12.2866 C.ar    1  UNL1        0.0220
     11 C          65.6854   93.6850   11.2700 C.ar    1  UNL1        0.1177
     12 N          66.3267   93.4948    9.9274 N.ar    1  UNL1       -0.1679
     13 N          67.5511   92.6487   10.1142 N.ar    1  UNL1       -0.2477
     14 C          68.4945   92.2120    9.0328 C.3     1  UNL1        0.1537
     15 C          67.6665   92.3159   11.5722 C.ar    1  UNL1        0.0927
     16 S          62.6341   88.5982   15.9207 S.3     1  UNL1       -0.0724
     17 C          63.1991   87.5055   16.7792 C.3     1  UNL1        0.0913
     18 C          63.4816   86.1567   16.1869 C.ar    1  UNL1       -0.0108
     19 C          62.5782   84.9991   16.4931 C.ar    1  UNL1       -0.0011
     20 C          62.8606   83.6502   15.9008 C.ar    1  UNL1        0.0293
     21 C          64.0465   83.4589   15.0024 C.ar    1  UNL1        0.1401
     22 F          64.3289   82.1101   14.4102 F       1  UNL1       -0.2042
     23 C          64.9499   84.6166   14.6963 C.ar    1  UNL1        0.0293
     24 C          64.6674   85.9654   15.2885 C.ar    1  UNL1       -0.0011
     25 N          61.8353   87.4036   11.4709 N.am    1  UNL1       -0.2655
     26 C          62.2385   88.5084   12.4019 C.2     1  UNL1        0.2494
     27 O          61.3023   89.6518   12.6589 O.2     1  UNL1       -0.2727
     28 C          62.7716   86.2601   11.2139 C.3     1  UNL1        0.1796
     29 C          62.7418   82.3383   11.8210 C.3     1  UNL1        0.1150
     30 N          62.9930   83.6718   11.1815 N.am    1  UNL1       -0.2746
     31 C          63.7170   83.7501    9.8701 C.3     1  UNL1        0.1150
     32 C          62.5203   84.9268   11.8534 C.2     1  UNL1        0.2460
     33 O          61.7964   84.8484   13.1648 O.2     1  UNL1       -0.2730
     34 C          60.4959   87.4422   10.7967 C.3     1  UNL1        0.1207
     35 C          60.3098   88.2452    9.5435 C.ar    1  UNL1       -0.0023
     36 C          59.5560   87.6631    8.3847 C.ar    1  UNL1       -0.0026
     37 C          59.3700   88.4662    7.1316 C.ar    1  UNL1       -0.0003
     38 C          59.9378   89.8513    7.0372 C.ar    1  UNL1       -0.0000
     39 C          60.6917   90.4334    8.1960 C.ar    1  UNL1       -0.0003
     40 C          60.8777   89.6304    9.4491 C.ar    1  UNL1       -0.0026
     41 C          59.7518   90.6544    5.7839 C.ar    1  UNL1        0.0001
     42 C          58.3786   91.0973    5.3739 C.ar    1  UNL1        0.0009
     43 C          58.1925   91.9004    4.1206 C.ar    1  UNL1        0.0114
     44 C          59.3797   92.2605    3.2775 C.ar    1  UNL1        0.0577
     45 CL         59.1937   93.0635    2.0243 Cl      1  UNL1       -0.0822
     46 C          60.7530   91.8175    3.6876 C.ar    1  UNL1        0.0114
     47 C          60.9390   91.0145    4.9408 C.ar    1  UNL1        0.0009
@<TRIPOS>BOND
     1    29    30    1
     2    30    31    1
     3    30    32   am
     4    32    33    2
     5    32    28    1
     6    28    25    1
     7    25    34    1
     8    34    35    1
     9    35    36   ar
    10    36    37   ar
    11    37    38   ar
    12    38    41    1
    13    41    42   ar
    14    42    43   ar
    15    43    44   ar
    16    44    45    1
    17    44    46   ar
    18    46    47   ar
    19    38    39   ar
    20    39    40   ar
    21    25    26   am
    22    26    27    2
    23    26     1    1
    24     1     2    1
    25     2     3   ar
    26     3     4   ar
    27     4     9    1
    28     9    10    1
    29    10    11   ar
    30    11    12   ar
    31    12    13   ar
    32    13    14    1
    33    13    15   ar
    34     4     5   ar
    35     5     6    2
    36     5     7   ar
    37     7     8   ar
    38     8    16    1
    39    16    17    1
    40    17    18    1
    41    18    19   ar
    42    19    20   ar
    43    20    21   ar
    44    21    22    1
    45    21    23   ar
    46    23    24   ar
    47    40    35   ar
    48     8     2   ar
    49    24    18   ar
    50    47    41   ar
    51    15    10   ar
@<TRIPOS>MOLECULE
*****
 47 51 0 0 0
SMALL
GASTEIGER

@<TRIPOS>ATOM
      1 C          61.9447   88.0860    9.9306 C.3     1  UNL1        0.1934
      2 N          62.6906   88.6736   11.0918 N.ar    1  UNL1       -0.2979
      3 C          63.0631   90.1266   11.0860 C.ar    1  UNL1        0.0786
      4 C          63.8091   90.7142   12.2472 C.ar    1  UNL1        0.0574
      5 C          64.1825   89.8487   13.4142 C.ar    1  UNL1        0.2786
      6 O          64.9284   90.4363   14.5753 O.2     1  UNL1       -0.2654
      7 N          63.8099   88.3957   13.4198 N.ar    1  UNL1       -0.1847
      8 C          63.0640   87.8082   12.2586 C.ar    1  UNL1        0.1750
      9 C          64.1816   92.1672   12.2416 C.3     1  UNL1        0.0622
     10 C          65.4398   92.6162   11.5594 C.ar    1  UNL1        0.0220
     11 C          66.8286   92.1420   11.8700 C.ar    1  UNL1        0.1177
     12 N          67.7772   92.8510   10.9494 N.ar    1  UNL1       -0.1679
     13 N          66.9747   93.7635   10.0699 N.ar    1  UNL1       -0.2477
     14 C          67.5209   94.6631    9.0011 C.3     1  UNL1        0.1537
     15 C          65.5302   93.6183   10.4469 C.ar    1  UNL1        0.0927
     16 S          62.6915   86.3552   12.2643 S.3     1  UNL1       -0.0724
     17 C          63.4508   85.3896   13.1252 C.3     1  UNL1        0.0913
     18 C          63.0622   83.9411   13.1501 C.ar    1  UNL1       -0.0108
     19 C          62.3430   83.3778   14.3397 C.ar    1  UNL1       -0.0011
     20 C          61.9543   81.9292   14.3646 C.ar    1  UNL1        0.0293
     21 C          62.2849   81.0439   13.1998 C.ar    1  UNL1        0.1401
     22 F          61.8963   79.5954   13.2246 F       1  UNL1       -0.2042
     23 C          63.0043   81.6072   12.0100 C.ar    1  UNL1        0.0293
     24 C          63.3929   83.0557   11.9852 C.ar    1  UNL1       -0.0011
     25 N          60.0841   88.2729    8.1269 N.am    1  UNL1       -0.2655
     26 C          60.8783   88.8854    9.2422 C.2     1  UNL1        0.2494
     27 O          60.6062   90.2974    9.6693 O.2     1  UNL1       -0.2727
     28 C          60.3563   86.8609    7.6999 C.3     1  UNL1        0.1796
     29 C          63.0084   84.1957    8.9697 C.3     1  UNL1        0.1150
     30 N          62.2503   85.1203    8.0639 N.am    1  UNL1       -0.2746
     31 C          62.6283   85.2288    6.6164 C.3     1  UNL1        0.1150
     32 C          61.1143   85.9363    8.6057 C.2     1  UNL1        0.2460
     33 O          60.7363   85.8278   10.0532 O.2     1  UNL1       -0.2730
     34 C          59.0177   89.0723    7.4386 C.3     1  UNL1        0.1207
     35 C          59.3769   89.9741    6.2949 C.ar    1  UNL1       -0.0023
     36 C          60.7959   90.0468    5.8142 C.ar    1  UNL1       -0.0026
     37 C          61.1551   90.9486    4.6707 C.ar    1  UNL1       -0.0003
     38 C          60.0952   91.7776    4.0078 C.ar    1  UNL1       -0.0000
     39 C          58.6762   91.7048    4.4884 C.ar    1  UNL1       -0.0003
     40 C          58.3171   90.8031    5.6320 C.ar    1  UNL1       -0.0026
     41 C          60.4544   92.6794    2.8641 C.ar    1  UNL1        0.0001
     42 C          59.3728   93.3138    2.0410 C.ar    1  UNL1        0.0009
     43 C          59.7320   94.2156    0.8974 C.ar    1  UNL1        0.0114
     44 C          61.1728   94.4829    0.5769 C.ar    1  UNL1        0.0577
     45 CL         61.5320   95.3846   -0.5666 Cl      1  UNL1       -0.0822
     46 C          62.2544   93.8484    1.4001 C.ar    1  UNL1        0.0114
     47 C          61.8952   92.9466    2.5437 C.ar    1  UNL1        0.0009
@<TRIPOS>BOND
     1    29    30    1
     2    30    31    1
     3    30    32   am
     4    32    33    2
     5    32    28    1
     6    28    25    1
     7    25    34    1
     8    34    35    1
     9    35    36   ar
    10    36    37   ar
    11    37    38   ar
    12    38    41    1
    13    41    42   ar
    14    42    43   ar
    15    43    44   ar
    16    44    45    1
    17    44    46   ar
    18    46    47   ar
    19    38    39   ar
    20    39    40   ar
    21    25    26   am
    22    26    27    2
    23    26     1    1
    24     1     2    1
    25     2     3   ar
    26     3     4   ar
    27     4     9    1
    28     9    10    1
    29    10    11   ar
    30    11    12   ar
    31    12    13   ar
    32    13    14    1
    33    13    15   ar
    34     4     5   ar
    35     5     6    2
    36     5     7   ar
    37     7     8   ar
    38     8    16    1
    39    16    17    1
    40    17    18    1
    41    18    19   ar
    42    19    20   ar
    43    20    21   ar
    44    21    22    1
    45    21    23   ar
    46    23    24   ar
    47    40    35   ar
    48     8     2   ar
    49    24    18   ar
    50    47    41   ar
    51    15    10   ar
@<TRIPOS>MOLECULE
*****
 47 51 0 0 0
SMALL
GASTEIGER

@<TRIPOS>ATOM
      1 C          62.4185   87.9425   10.1314 C.3     1  UNL1        0.1934
      2 N          62.9045   88.3147   11.5008 N.ar    1  UNL1       -0.2979
      3 C          63.1739   89.7518   11.8362 C.ar    1  UNL1        0.0786
      4 C          63.6599   90.1239   13.2056 C.ar    1  UNL1        0.0574
      5 C          63.8765   89.0591   14.2396 C.ar    1  UNL1        0.2786
      6 O          64.3625   89.4313   15.6090 O.2     1  UNL1       -0.2654
      7 N          63.6072   87.6221   13.9043 N.ar    1  UNL1       -0.1847
      8 C          63.1212   87.2499   12.5348 C.ar    1  UNL1        0.1750
      9 C          63.9292   91.5609   13.5410 C.3     1  UNL1        0.0622
     10 C          65.3415   92.0594   13.6253 C.ar    1  UNL1        0.0220
     11 C          66.2114   92.4442   12.4655 C.ar    1  UNL1        0.1177
     12 N          67.5393   92.8833   13.0077 N.ar    1  UNL1       -0.1679
     13 N          67.4900   92.7698   14.5027 N.ar    1  UNL1       -0.2477
     14 C          68.6036   93.1064   15.4496 C.3     1  UNL1        0.1537
     15 C          66.1317   92.2606   14.8843 C.ar    1  UNL1        0.0927
     16 S          62.8518   85.8129   12.1995 S.3     1  UNL1       -0.0724
     17 C          62.8432   84.7782   13.2855 C.3     1  UNL1        0.0913
     18 C          62.7899   83.3212   12.9328 C.ar    1  UNL1       -0.0108
     19 C          63.1004   82.8763   11.5344 C.ar    1  UNL1       -0.0011
     20 C          63.0472   81.4193   11.1816 C.ar    1  UNL1        0.0293
     21 C          62.6835   80.4073   12.2273 C.ar    1  UNL1        0.1401
     22 F          62.6303   78.9503   11.8746 F       1  UNL1       -0.2042
     23 C          62.3730   80.8523   13.6258 C.ar    1  UNL1        0.0293
     24 C          62.4262   82.3092   13.9785 C.ar    1  UNL1       -0.0011
     25 N          60.2209   88.0448    8.7493 N.am    1  UNL1       -0.2655
     26 C          61.3306   88.7426    9.4785 C.2     1  UNL1        0.2494
     27 O          61.3523   90.2405    9.5549 O.2     1  UNL1       -0.2727
     28 C          60.1993   86.5468    8.6730 C.3     1  UNL1        0.1796
     29 C          62.1300   84.4813    5.8880 C.3     1  UNL1        0.1150
     30 N          61.8245   85.1708    7.1848 N.am    1  UNL1       -0.2746
     31 C          62.8387   85.1734    8.2899 C.3     1  UNL1        0.1150
     32 C          60.5048   85.8575    7.3763 C.2     1  UNL1        0.2460
     33 O          59.4905   85.8548    6.2712 O.2     1  UNL1       -0.2730
     34 C          59.1330   88.8448    8.0965 C.3     1  UNL1        0.1207
     35 C          59.4400   89.6871    6.8937 C.ar    1  UNL1       -0.0023
     36 C          60.8446   89.7683    6.3737 C.ar    1  UNL1       -0.0026
     37 C          61.1515   90.6104    5.1710 C.ar    1  UNL1       -0.0003
     38 C          60.0538   91.3714    4.4884 C.ar    1  UNL1       -0.0000
     39 C          58.6492   91.2902    5.0084 C.ar    1  UNL1       -0.0003
     40 C          58.3423   90.4480    6.2110 C.ar    1  UNL1       -0.0026
     41 C          60.3608   92.2136    3.2856 C.ar    1  UNL1        0.0001
     42 C          59.2436   92.8232    2.4919 C.ar    1  UNL1        0.0009
     43 C          59.5505   93.6654    1.2892 C.ar    1  UNL1        0.0114
     44 C          60.9749   93.8980    0.8802 C.ar    1  UNL1        0.0577
     45 CL         61.2819   94.7402   -0.3225 Cl      1  UNL1       -0.0822
     46 C          62.0922   93.2883    1.6740 C.ar    1  UNL1        0.0114
     47 C          61.7851   92.4462    2.8767 C.ar    1  UNL1        0.0009
@<TRIPOS>BOND
     1    29    30    1
     2    30    31    1
     3    30    32   am
     4    32    33    2
     5    32    28    1
     6    28    25    1
     7    25    34    1
     8    34    35    1
     9    35    36   ar
    10    36    37   ar
    11    37    38   ar
    12    38    41    1
    13    41    42   ar
    14    42    43   ar
    15    43    44   ar
    16    44    45    1
    17    44    46   ar
    18    46    47   ar
    19    38    39   ar
    20    39    40   ar
    21    25    26   am
    22    26    27    2
    23    26     1    1
    24     1     2    1
    25     2     3   ar
    26     3     4   ar
    27     4     9    1
    28     9    10    1
    29    10    11   ar
    30    11    12   ar
    31    12    13   ar
    32    13    14    1
    33    13    15   ar
    34     4     5   ar
    35     5     6    2
    36     5     7   ar
    37     7     8   ar
    38     8    16    1
    39    16    17    1
    40    17    18    1
    41    18    19   ar
    42    19    20   ar
    43    20    21   ar
    44    21    22    1
    45    21    23   ar
    46    23    24   ar
    47    40    35   ar
    48     8     2   ar
    49    24    18   ar
    50    47    41   ar
    51    15    10   ar
@<TRIPOS>MOLECULE
*****
 47 51 0 0 0
SMALL
GASTEIGER

@<TRIPOS>ATOM
      1 C          63.4506   88.3116   13.1067 C.3     1  UNL1        0.1934
      2 N          63.7714   89.4195   14.0657 N.ar    1  UNL1       -0.2979
      3 C          64.5711   90.6021   13.6052 C.ar    1  UNL1        0.0786
      4 C          64.8918   91.7100   14.5642 C.ar    1  UNL1        0.0574
      5 C          64.4128   91.6353   15.9837 C.ar    1  UNL1        0.2786
      6 O          64.7335   92.7433   16.9427 O.2     1  UNL1       -0.2654
      7 N          63.6131   90.4528   16.4442 N.ar    1  UNL1       -0.1847
      8 C          63.2924   89.3449   15.4852 C.ar    1  UNL1        0.1750
      9 C          65.6915   92.8925   14.1037 C.3     1  UNL1        0.0622
     10 C          67.1579   92.9714   14.4097 C.ar    1  UNL1        0.0220
     11 C          68.2431   92.1870   13.7337 C.ar    1  UNL1        0.1177
     12 N          69.5523   92.5794   14.3516 N.ar    1  UNL1       -0.1679
     13 N          69.2763   93.6063   15.4096 N.ar    1  UNL1       -0.2477
     14 C          70.3003   94.2738   16.2790 C.3     1  UNL1        0.1537
     15 C          67.7965   93.8486   15.4455 C.ar    1  UNL1        0.0927
     16 S          62.4927   88.1624   15.9457 S.3     1  UNL1       -0.0724
     17 C          63.1566   87.0650   16.7237 C.3     1  UNL1        0.0913
     18 C          63.4986   85.7692   16.0501 C.ar    1  UNL1       -0.0108
     19 C          62.6411   84.5589   16.2729 C.ar    1  UNL1       -0.0011
     20 C          62.9831   83.2630   15.5993 C.ar    1  UNL1        0.0293
     21 C          64.1828   83.1775   14.7029 C.ar    1  UNL1        0.1401
     22 F          64.5248   81.8816   14.0293 F       1  UNL1       -0.2042
     23 C          65.0403   84.3879   14.4800 C.ar    1  UNL1        0.0293
     24 C          64.6982   85.6837   15.1536 C.ar    1  UNL1       -0.0011
     25 N          61.8126   87.1907   11.4302 N.am    1  UNL1       -0.2655
     26 C          62.1377   88.3043   12.3812 C.2     1  UNL1        0.2494
     27 O          61.1500   89.4104   12.6067 O.2     1  UNL1       -0.2727
     28 C          62.8004   86.0846   11.2048 C.3     1  UNL1        0.1796
     29 C          62.7367   82.1351   11.5890 C.3     1  UNL1        0.1150
     30 N          62.9977   83.5003   11.0249 N.am    1  UNL1       -0.2746
     31 C          63.7170   83.6463    9.7167 C.3     1  UNL1        0.1150
     32 C          62.5394   84.7195   11.7689 C.2     1  UNL1        0.2460
     33 O          61.8202   84.5735   13.0771 O.2     1  UNL1       -0.2730
     34 C          60.4998   87.1833   10.7047 C.3     1  UNL1        0.1207
     35 C          60.3146   88.0303    9.4806 C.ar    1  UNL1       -0.0023
     36 C          60.9368   89.3933    9.4105 C.ar    1  UNL1       -0.0026
     37 C          60.7515   90.2402    8.1864 C.ar    1  UNL1       -0.0003
     38 C          59.9441   89.7241    7.0324 C.ar    1  UNL1       -0.0000
     39 C          59.3219   88.3610    7.1025 C.ar    1  UNL1       -0.0003
     40 C          59.5071   87.5141    8.3266 C.ar    1  UNL1       -0.0026
     41 C          59.7588   90.5710    5.8083 C.ar    1  UNL1        0.0001
     42 C          60.9434   90.9399    4.9652 C.ar    1  UNL1        0.0009
     43 C          60.7581   91.7868    3.7411 C.ar    1  UNL1        0.0114
     44 C          59.3883   92.2649    3.3601 C.ar    1  UNL1        0.0577
     45 CL         59.2031   93.1118    2.1360 Cl      1  UNL1       -0.0822
     46 C          58.2038   91.8960    4.2033 C.ar    1  UNL1        0.0114
     47 C          58.3891   91.0491    5.4273 C.ar    1  UNL1        0.0009
@<TRIPOS>BOND
     1    29    30    1
     2    30    31    1
     3    30    32   am
     4    32    33    2
     5    32    28    1
     6    28    25    1
     7    25    34    1
     8    34    35    1
     9    35    36   ar
    10    36    37   ar
    11    37    38   ar
    12    38    41    1
    13    41    42   ar
    14    42    43   ar
    15    43    44   ar
    16    44    45    1
    17    44    46   ar
    18    46    47   ar
    19    38    39   ar
    20    39    40   ar
    21    25    26   am
    22    26    27    2
    23    26     1    1
    24     1     2    1
    25     2     3   ar
    26     3     4   ar
    27     4     9    1
    28     9    10    1
    29    10    11   ar
    30    11    12   ar
    31    12    13   ar
    32    13    14    1
    33    13    15   ar
    34     4     5   ar
    35     5     6    2
    36     5     7   ar
    37     7     8   ar
    38     8    16    1
    39    16    17    1
    40    17    18    1
    41    18    19   ar
    42    19    20   ar
    43    20    21   ar
    44    21    22    1
    45    21    23   ar
    46    23    24   ar
    47    40    35   ar
    48     8     2   ar
    49    24    18   ar
    50    47    41   ar
    51    15    10   ar
@<TRIPOS>MOLECULE
*****
 47 51 0 0 0
SMALL
GASTEIGER

@<TRIPOS>ATOM
      1 C          63.3849   86.0958   12.9510 C.3     1  UNL1        0.1934
      2 N          63.0826   85.6705   11.5447 N.ar    1  UNL1       -0.2979
      3 C          62.1217   86.4654   10.7110 C.ar    1  UNL1        0.0786
      4 C          61.8194   86.0401    9.3047 C.ar    1  UNL1        0.0574
      5 C          62.4779   84.8200    8.7321 C.ar    1  UNL1        0.2786
      6 O          62.1755   84.3947    7.3258 O.2     1  UNL1       -0.2654
      7 N          63.4387   84.0252    9.5658 N.ar    1  UNL1       -0.1847
      8 C          63.7410   84.4505   10.9721 C.ar    1  UNL1        0.1750
      9 C          60.8586   86.8349    8.4709 C.3     1  UNL1        0.0622
     10 C          60.3699   88.1678    8.9553 C.ar    1  UNL1        0.0220
     11 C          60.0496   89.3549    8.0962 C.ar    1  UNL1        0.1177
     12 N          59.5975   90.4683    8.9938 N.ar    1  UNL1       -0.1679
     13 N          59.6383   89.9694   10.4079 N.ar    1  UNL1       -0.2477
     14 C          59.2669   90.7544   11.6309 C.3     1  UNL1        0.1537
     15 C          60.1156   88.5476   10.3841 C.ar    1  UNL1        0.0927
     16 S          64.7018   83.6557   11.8059 S.3     1  UNL1       -0.0724
     17 C          64.5272   82.1721   11.9422 C.3     1  UNL1        0.0913
     18 C          63.3053   81.6194   12.6140 C.ar    1  UNL1       -0.0108
     19 C          62.3347   82.5454   13.2851 C.ar    1  UNL1       -0.0011
     20 C          61.1127   81.9927   13.9569 C.ar    1  UNL1        0.0293
     21 C          60.8614   80.5139   13.9577 C.ar    1  UNL1        0.1401
     22 F          59.6396   79.9611   14.6295 F       1  UNL1       -0.2042
     23 C          61.8321   79.5878   13.2866 C.ar    1  UNL1        0.0293
     24 C          63.0540   80.1406   12.6148 C.ar    1  UNL1       -0.0011
     25 N          63.7298   87.9795   14.7069 N.am    1  UNL1       -0.2655
     26 C          63.4558   87.5542   13.2947 C.2     1  UNL1        0.2494
     27 O          63.2527   88.5873   12.2264 O.2     1  UNL1       -0.2727
     28 C          63.9328   86.9463   15.7753 C.3     1  UNL1        0.1796
     29 C          64.6458   83.0638   15.3663 C.3     1  UNL1        0.1150
     30 N          63.9447   84.3497   15.6900 N.am    1  UNL1       -0.2746
     31 C          62.5542   84.3249   16.2521 C.3     1  UNL1        0.1150
     32 C          64.6340   85.6604   15.4516 C.2     1  UNL1        0.2460
     33 O          66.0244   85.6853   14.8895 O.2     1  UNL1       -0.2730
     34 C          63.8006   89.4378   15.0506 C.3     1  UNL1        0.1207
     35 C          64.3964   90.4100   14.0759 C.ar    1  UNL1       -0.0023
     36 C          65.8127   90.8727   14.2489 C.ar    1  UNL1       -0.0026
     37 C          66.4084   91.8449   13.2742 C.ar    1  UNL1       -0.0003
     38 C          65.5878   92.3544   12.1266 C.ar    1  UNL1       -0.0000
     39 C          64.1715   91.8917   11.9536 C.ar    1  UNL1       -0.0003
     40 C          63.5758   90.9195   12.9283 C.ar    1  UNL1       -0.0026
     41 C          66.1835   93.3266   11.1519 C.ar    1  UNL1        0.0001
     42 C          65.7594   94.7652   11.1734 C.ar    1  UNL1        0.0009
     43 C          66.3552   95.7374   10.1987 C.ar    1  UNL1        0.0114
     44 C          67.3750   95.2710    9.2026 C.ar    1  UNL1        0.0577
     45 CL         67.9708   96.2431    8.2279 Cl      1  UNL1       -0.0822
     46 C          67.7991   93.8323    9.1811 C.ar    1  UNL1        0.0114
     47 C          67.2034   92.8601   10.1558 C.ar    1  UNL1        0.0009
@<TRIPOS>BOND
     1    29    30    1
     2    30    31    1
     3    30    32   am
     4    32    33    2
     5    32    28    1
     6    28    25    1
     7    25    34    1
     8    34    35    1
     9    35    36   ar
    10    36    37   ar
    11    37    38   ar
    12    38    41    1
    13    41    42   ar
    14    42    43   ar
    15    43    44   ar
    16    44    45    1
    17    44    46   ar
    18    46    47   ar
    19    38    39   ar
    20    39    40   ar
    21    25    26   am
    22    26    27    2
    23    26     1    1
    24     1     2    1
    25     2     3   ar
    26     3     4   ar
    27     4     9    1
    28     9    10    1
    29    10    11   ar
    30    11    12   ar
    31    12    13   ar
    32    13    14    1
    33    13    15   ar
    34     4     5   ar
    35     5     6    2
    36     5     7   ar
    37     7     8   ar
    38     8    16    1
    39    16    17    1
    40    17    18    1
    41    18    19   ar
    42    19    20   ar
    43    20    21   ar
    44    21    22    1
    45    21    23   ar
    46    23    24   ar
    47    40    35   ar
    48     8     2   ar
    49    24    18   ar
    50    47    41   ar
    51    15    10   ar
@<TRIPOS>MOLECULE
*****
 47 51 0 0 0
SMALL
GASTEIGER

@<TRIPOS>ATOM
      1 C          62.9353   87.1846   12.2603 C.3     1  UNL1        0.1934
      2 N          63.4962   88.5433   12.5590 N.ar    1  UNL1       -0.2979
      3 C          63.5313   89.5923   11.4873 C.ar    1  UNL1        0.0786
      4 C          64.0922   90.9511   11.7859 C.ar    1  UNL1        0.0574
      5 C          64.6180   91.2608   13.1562 C.ar    1  UNL1        0.2786
      6 O          65.1789   92.6196   13.4549 O.2     1  UNL1       -0.2654
      7 N          64.5828   90.2118   14.2278 N.ar    1  UNL1       -0.1847
      8 C          64.0219   88.8531   13.9292 C.ar    1  UNL1        0.1750
      9 C          64.1273   92.0001   10.7143 C.3     1  UNL1        0.0622
     10 C          65.3448   92.8601   10.5463 C.ar    1  UNL1        0.0220
     11 C          66.7593   92.3738   10.4349 C.ar    1  UNL1        0.1177
     12 N          67.6501   93.5706   10.2799 N.ar    1  UNL1       -0.1679
     13 N          66.7861   94.7967   10.2956 N.ar    1  UNL1       -0.2477
     14 C          67.2631   96.2132   10.1688 C.3     1  UNL1        0.1537
     15 C          65.3613   94.3576   10.4602 C.ar    1  UNL1        0.0927
     16 S          63.9868   87.8041   15.0008 S.3     1  UNL1       -0.0724
     17 C          64.8595   86.5891   14.8899 C.3     1  UNL1        0.0913
     18 C          64.2402   85.2344   14.7133 C.ar    1  UNL1       -0.0108
     19 C          64.7842   84.2896   13.6831 C.ar    1  UNL1       -0.0011
     20 C          64.1649   82.9348   13.5064 C.ar    1  UNL1        0.0293
     21 C          63.0015   82.5250   14.3600 C.ar    1  UNL1        0.1401
     22 F          62.3821   81.1703   14.1834 F       1  UNL1       -0.2042
     23 C          62.4574   83.4699   15.3902 C.ar    1  UNL1        0.0293
     24 C          63.0768   84.8246   15.5668 C.ar    1  UNL1       -0.0011
     25 N          60.5939   87.4660   11.1699 N.am    1  UNL1       -0.2655
     26 C          62.0153   86.9933   11.0910 C.2     1  UNL1        0.2494
     27 O          62.5168   86.3295    9.8429 O.2     1  UNL1       -0.2727
     28 C          60.0925   88.1298   12.4181 C.3     1  UNL1        0.1796
     29 C          58.2444   91.5673   11.6984 C.3     1  UNL1        0.1150
     30 N          59.3234   90.5287   11.7829 N.am    1  UNL1       -0.2746
     31 C          60.7123   90.8506   11.3167 C.3     1  UNL1        0.1150
     32 C          59.0135   89.1684   12.3336 C.2     1  UNL1        0.2460
     33 O          57.6246   88.8465   12.7998 O.2     1  UNL1       -0.2730
     34 C          59.6740   87.2748   10.0007 C.3     1  UNL1        0.1207
     35 C          59.7678   88.1891    8.8152 C.ar    1  UNL1       -0.0023
     36 C          60.6687   89.3875    8.8617 C.ar    1  UNL1       -0.0026
     37 C          60.7625   90.3017    7.6762 C.ar    1  UNL1       -0.0003
     38 C          59.9553   90.0175    6.4443 C.ar    1  UNL1       -0.0000
     39 C          59.0544   88.8192    6.3977 C.ar    1  UNL1       -0.0003
     40 C          58.9607   87.9050    7.5832 C.ar    1  UNL1       -0.0026
     41 C          60.0491   90.9318    5.2588 C.ar    1  UNL1        0.0001
     42 C          58.8332   91.6699    4.7828 C.ar    1  UNL1        0.0009
     43 C          58.9270   92.5842    3.5973 C.ar    1  UNL1        0.0114
     44 C          60.2368   92.7604    2.8878 C.ar    1  UNL1        0.0577
     45 CL         60.3306   93.6746    1.7024 Cl      1  UNL1       -0.0822
     46 C          61.4528   92.0222    3.3639 C.ar    1  UNL1        0.0114
     47 C          61.3590   91.1080    4.5493 C.ar    1  UNL1        0.0009
@<TRIPOS>BOND
     1    29    30    1
     2    30    31    1
     3    30    32   am
     4    32    33    2
     5    32    28    1
     6    28    25    1
     7    25    34    1
     8    34    35    1
     9    35    36   ar
    10    36    37   ar
    11    37    38   ar
    12    38    41    1
    13    41    42   ar
    14    42    43   ar
    15    43    44   ar
    16    44    45    1
    17    44    46   ar
    18    46    47   ar
    19    38    39   ar
    20    39    40   ar
    21    25    26   am
    22    26    27    2
    23    26     1    1
    24     1     2    1
    25     2     3   ar
    26     3     4   ar
    27     4     9    1
    28     9    10    1
    29    10    11   ar
    30    11    12   ar
    31    12    13   ar
    32    13    14    1
    33    13    15   ar
    34     4     5   ar
    35     5     6    2
    36     5     7   ar
    37     7     8   ar
    38     8    16    1
    39    16    17    1
    40    17    18    1
    41    18    19   ar
    42    19    20   ar
    43    20    21   ar
    44    21    22    1
    45    21    23   ar
    46    23    24   ar
    47    40    35   ar
    48     8     2   ar
    49    24    18   ar
    50    47    41   ar
    51    15    10   ar
@<TRIPOS>MOLECULE
*****
 47 51 0 0 0
SMALL
GASTEIGER

@<TRIPOS>ATOM
      1 C          62.6585   90.0439   13.6224 C.3     1  UNL1        0.1934
      2 N          63.2887   90.8044   12.4935 N.ar    1  UNL1       -0.2979
      3 C          64.5396   91.5979   12.7297 C.ar    1  UNL1        0.0786
      4 C          65.1698   92.3584   11.6008 C.ar    1  UNL1        0.0574
      5 C          64.5491   92.3254   10.2356 C.ar    1  UNL1        0.2786
      6 O          65.1792   93.0859    9.1066 O.2     1  UNL1       -0.2654
      7 N          63.2983   91.5319    9.9994 N.ar    1  UNL1       -0.1847
      8 C          62.6681   90.7714   11.1283 C.ar    1  UNL1        0.1750
      9 C          66.4206   93.1519   11.8370 C.3     1  UNL1        0.0622
     10 C          66.6098   94.4744   11.1549 C.ar    1  UNL1        0.0220
     11 C          66.1974   95.8118   11.6946 C.ar    1  UNL1        0.1177
     12 N          66.5774   96.8556   10.6866 N.ar    1  UNL1       -0.1679
     13 N          67.2248   96.1633    9.5239 N.ar    1  UNL1       -0.2477
     14 C          67.7584   96.8263    8.2887 C.3     1  UNL1        0.1537
     15 C          67.2448   94.6917    9.8134 C.ar    1  UNL1        0.0927
     16 S          61.4173   89.9779   10.8921 S.3     1  UNL1       -0.0724
     17 C          61.4202   88.4928   11.1030 C.3     1  UNL1        0.0913
     18 C          61.3072   87.5681    9.9273 C.ar    1  UNL1       -0.0108
     19 C          60.1006   87.6294    9.0383 C.ar    1  UNL1       -0.0011
     20 C          59.9876   86.7047    7.8626 C.ar    1  UNL1        0.0293
     21 C          61.0811   85.7188    7.5759 C.ar    1  UNL1        0.1401
     22 F          60.9681   84.7941    6.4003 F       1  UNL1       -0.2042
     23 C          62.2877   85.6576    8.4651 C.ar    1  UNL1        0.0293
     24 C          62.4007   86.5822    9.6407 C.ar    1  UNL1       -0.0011
     25 N          63.5871   88.5377   15.5248 N.am    1  UNL1       -0.2655
     26 C          63.2551   88.7447   14.0768 C.2     1  UNL1        0.2494
     27 O          63.5197   87.6527   13.0830 O.2     1  UNL1       -0.2727
     28 C          63.3225   89.6297   16.5186 C.3     1  UNL1        0.1796
     29 C          65.8298   92.4989   15.4090 C.3     1  UNL1        0.1150
     30 N          65.2365   91.1368   15.6158 N.am    1  UNL1       -0.2746
     31 C          65.9642   89.9197   15.1268 C.3     1  UNL1        0.1150
     32 C          63.9157   90.9918   16.3118 C.2     1  UNL1        0.2460
     33 O          63.1880   92.2089   16.8008 O.2     1  UNL1       -0.2730
     34 C          64.1836   87.2386   15.9792 C.3     1  UNL1        0.1207
     35 C          63.9548   85.9887   15.1820 C.ar    1  UNL1       -0.0023
     36 C          65.0498   85.4408   14.3155 C.ar    1  UNL1       -0.0026
     37 C          64.8209   84.1909   13.5184 C.ar    1  UNL1       -0.0003
     38 C          63.4971   83.4890   13.5877 C.ar    1  UNL1       -0.0000
     39 C          62.4022   84.0369   14.4542 C.ar    1  UNL1       -0.0003
     40 C          62.6310   85.2867   15.2513 C.ar    1  UNL1       -0.0026
     41 C          63.2683   82.2391   12.7905 C.ar    1  UNL1        0.0001
     42 C          62.8153   80.9844   13.4764 C.ar    1  UNL1        0.0009
     43 C          62.5865   79.7345   12.6792 C.ar    1  UNL1        0.0114
     44 C          62.8108   79.7393   11.1961 C.ar    1  UNL1        0.0577
     45 CL         62.5820   78.4895   10.3989 Cl      1  UNL1       -0.0822
     46 C          63.2639   80.9941   10.5102 C.ar    1  UNL1        0.0114
     47 C          63.4926   82.2439   11.3074 C.ar    1  UNL1        0.0009
@<TRIPOS>BOND
     1    29    30    1
     2    30    31    1
     3    30    32   am
     4    32    33    2
     5    32    28    1
     6    28    25    1
     7    25    34    1
     8    34    35    1
     9    35    36   ar
    10    36    37   ar
    11    37    38   ar
    12    38    41    1
    13    41    42   ar
    14    42    43   ar
    15    43    44   ar
    16    44    45    1
    17    44    46   ar
    18    46    47   ar
    19    38    39   ar
    20    39    40   ar
    21    25    26   am
    22    26    27    2
    23    26     1    1
    24     1     2    1
    25     2     3   ar
    26     3     4   ar
    27     4     9    1
    28     9    10    1
    29    10    11   ar
    30    11    12   ar
    31    12    13   ar
    32    13    14    1
    33    13    15   ar
    34     4     5   ar
    35     5     6    2
    36     5     7   ar
    37     7     8   ar
    38     8    16    1
    39    16    17    1
    40    17    18    1
    41    18    19   ar
    42    19    20   ar
    43    20    21   ar
    44    21    22    1
    45    21    23   ar
    46    23    24   ar
    47    40    35   ar
    48     8     2   ar
    49    24    18   ar
    50    47    41   ar
    51    15    10   ar
@<TRIPOS>MOLECULE
*****
 47 51 0 0 0
SMALL
GASTEIGER

@<TRIPOS>ATOM
      1 C          63.5224   88.0862   12.4637 C.3     1  UNL1        0.1934
      2 N          63.5971   87.4921   13.8390 N.ar    1  UNL1       -0.2979
      3 C          63.8832   86.0295   14.0096 C.ar    1  UNL1        0.0786
      4 C          63.9578   85.4354   15.3849 C.ar    1  UNL1        0.0574
      5 C          63.7463   86.3039   16.5896 C.ar    1  UNL1        0.2786
      6 O          63.8209   85.7098   17.9649 O.2     1  UNL1       -0.2654
      7 N          63.4602   87.7664   16.4189 N.ar    1  UNL1       -0.1847
      8 C          63.3856   88.3605   15.0436 C.ar    1  UNL1        0.1750
      9 C          64.2440   83.9729   15.5556 C.3     1  UNL1        0.0622
     10 C          63.3138   82.9531   14.9682 C.ar    1  UNL1        0.0220
     11 C          61.8175   83.0474   14.9223 C.ar    1  UNL1        0.1177
     12 N          61.2957   81.8126   14.2493 N.ar    1  UNL1       -0.1679
     13 N          62.4695   80.9551   13.8794 N.ar    1  UNL1       -0.2477
     14 C          62.4070   79.6260   13.1867 C.3     1  UNL1        0.1537
     15 C          63.7168   81.6600   14.3237 C.ar    1  UNL1        0.0927
     16 S          63.0995   89.8230   14.8729 S.3     1  UNL1       -0.0724
     17 C          64.1731   90.8342   15.1465 C.3     1  UNL1        0.0913
     18 C          64.9878   91.3879   14.0153 C.ar    1  UNL1       -0.0108
     19 C          64.3455   91.6458   12.6846 C.ar    1  UNL1       -0.0011
     20 C          65.1602   92.1995   11.5533 C.ar    1  UNL1        0.0293
     21 C          66.6172   92.4953   11.7529 C.ar    1  UNL1        0.1401
     22 F          67.4319   93.0490   10.6217 F       1  UNL1       -0.2042
     23 C          67.2594   92.2373   13.0837 C.ar    1  UNL1        0.0293
     24 C          66.4447   91.6837   14.2149 C.ar    1  UNL1       -0.0011
     25 N          61.4182   87.1744   11.2427 N.am    1  UNL1       -0.2655
     26 C          62.1881   88.3245   11.8210 C.2     1  UNL1        0.2494
     27 O          61.6239   89.7128   11.7567 O.2     1  UNL1       -0.2727
     28 C          61.9825   85.7860   11.3070 C.3     1  UNL1        0.1796
     29 C          64.1859   83.3562    9.0731 C.3     1  UNL1        0.1150
     30 N          63.4644   83.9282   10.2573 N.am    1  UNL1       -0.2746
     31 C          63.5033   83.2142   11.5759 C.3     1  UNL1        0.1150
     32 C          62.7040   85.2141   10.1229 C.2     1  UNL1        0.2460
     33 O          62.6651   85.9281    8.8043 O.2     1  UNL1       -0.2730
     34 C          60.0839   87.4126   10.6000 C.3     1  UNL1        0.1207
     35 C          59.9895   88.2393    9.3519 C.ar    1  UNL1       -0.0023
     36 C          59.3965   87.6513    8.1059 C.ar    1  UNL1       -0.0026
     37 C          59.3021   88.4780    6.8579 C.ar    1  UNL1       -0.0003
     38 C          59.8007   89.8927    6.8559 C.ar    1  UNL1       -0.0000
     39 C          60.3936   90.4808    8.1019 C.ar    1  UNL1       -0.0003
     40 C          60.4880   89.6541    9.3499 C.ar    1  UNL1       -0.0026
     41 C          59.7062   90.7194    5.6078 C.ar    1  UNL1        0.0001
     42 C          60.9467   91.0521    4.8328 C.ar    1  UNL1        0.0009
     43 C          60.8523   91.8788    3.5847 C.ar    1  UNL1        0.0114
     44 C          59.5173   92.3728    3.1116 C.ar    1  UNL1        0.0577
     45 CL         59.4228   93.1995    1.8636 Cl      1  UNL1       -0.0822
     46 C          58.2768   92.0401    3.8866 C.ar    1  UNL1        0.0114
     47 C          58.3713   91.2135    5.1347 C.ar    1  UNL1        0.0009
@<TRIPOS>BOND
     1    29    30    1
     2    30    31    1
     3    30    32   am
     4    32    33    2
     5    32    28    1
     6    28    25    1
     7    25    34    1
     8    34    35    1
     9    35    36   ar
    10    36    37   ar
    11    37    38   ar
    12    38    41    1
    13    41    42   ar
    14    42    43   ar
    15    43    44   ar
    16    44    45    1
    17    44    46   ar
    18    46    47   ar
    19    38    39   ar
    20    39    40   ar
    21    25    26   am
    22    26    27    2
    23    26     1    1
    24     1     2    1
    25     2     3   ar
    26     3     4   ar
    27     4     9    1
    28     9    10    1
    29    10    11   ar
    30    11    12   ar
    31    12    13   ar
    32    13    14    1
    33    13    15   ar
    34     4     5   ar
    35     5     6    2
    36     5     7   ar
    37     7     8   ar
    38     8    16    1
    39    16    17    1
    40    17    18    1
    41    18    19   ar
    42    19    20   ar
    43    20    21   ar
    44    21    22    1
    45    21    23   ar
    46    23    24   ar
    47    40    35   ar
    48     8     2   ar
    49    24    18   ar
    50    47    41   ar
    51    15    10   ar
