@<TRIPOS>MOLECULE
*****
 27 30 0 0 0
SMALL
GASTEIGER

@<TRIPOS>ATOM
      1 C          62.4805   89.9902   11.9076 C.ar    1  UNL1        0.1354
      2 C          62.9639   90.8274   10.7608 C.ar    1  UNL1        0.0414
      3 C          64.1709   91.7024   10.9274 C.ar    1  UNL1        0.0177
      4 C          64.8943   91.7400   12.2409 C.ar    1  UNL1        0.0440
      5 C          64.4109   90.9028   13.3877 C.ar    1  UNL1       -0.0054
      6 C          63.2040   90.0279   13.2211 C.ar    1  UNL1        0.0371
      7 C          65.1344   90.9405   14.7012 C.3     1  UNL1        0.0295
      8 C          66.3413   91.8154   14.8678 C.3     1  UNL1        0.0261
      9 C          66.8248   92.6527   13.7209 C.3     1  UNL1        0.0910
     10 N          66.1013   92.6150   12.4075 N.pl3   1  UNL1       -0.3093
     11 C          66.5848   93.4523   11.2606 C.3     1  UNL1        0.0755
     12 C          66.2260   94.9070   11.1905 C.3     1  UNL1        0.0368
     13 C          66.7094   95.7443   10.0436 C.3     1  UNL1        0.0703
     14 N          67.5517   95.1268    8.9669 N.3     1  UNL1       -0.2974
     15 C          67.9105   93.6720    9.0371 C.3     1  UNL1        0.0703
     16 C          67.4271   92.8348   10.1839 C.3     1  UNL1        0.0368
     17 H          68.4295   95.6458    8.9456 H       1  UNL1        0.1232
     18 N          61.2735   89.1152   11.7410 N.pl3   1  UNL1       -0.1990
     19 H          60.4110   89.3870   12.1302 H       1  UNL1        0.2985
     20 N          62.2149   86.7035   11.5235 N.2     1  UNL1       -0.0985
     21 C          61.3807   87.8262   10.9816 C.2     1  UNL1        0.3224
     22 H          62.6920   86.8127   12.3777 H       1  UNL1        0.3633
     23 C          60.6537   87.6598    9.6801 C.ar    1  UNL1        0.1114
     24 C          60.3888   86.3609    8.9780 C.ar    1  UNL1        0.0144
     25 C          59.6353   86.6614    7.7162 C.ar    1  UNL1        0.0077
     26 C          59.4347   88.1459    7.6384 C.ar    1  UNL1        0.0357
     27 S          60.0641   88.7629    8.8522 S.2     1  UNL1       -0.0792
@<TRIPOS>BOND
     1    20    21    2
     2    21    18    1
     3    18     1    1
     4     1     2   ar
     5     2     3   ar
     6     3     4   ar
     7     4     5   ar
     8     5     6   ar
     9     5     7    1
    10     7     8    1
    11     8     9    1
    12     9    10    1
    13    10    11    1
    14    11    12    1
    15    12    13    1
    16    13    14    1
    17    14    15    1
    18    15    16    1
    19    21    23    1
    20    23    24   ar
    21    24    25   ar
    22    25    26   ar
    23    26    27   ar
    24     6     1   ar
    25    16    11    1
    26    27    23   ar
    27    10     4    1
    28    20    22    1
    29    18    19    1
    30    14    17    1
@<TRIPOS>MOLECULE
*****
 27 30 0 0 0
SMALL
GASTEIGER

@<TRIPOS>ATOM
      1 C          62.3566   89.9575   11.7704 C.ar    1  UNL1        0.1354
      2 C          62.8791   90.8077   10.6505 C.ar    1  UNL1        0.0414
      3 C          64.1023   91.6509   10.8568 C.ar    1  UNL1        0.0177
      4 C          64.8031   91.6439   12.1830 C.ar    1  UNL1        0.0440
      5 C          64.2806   90.7938   13.3029 C.ar    1  UNL1       -0.0054
      6 C          63.0574   89.9505   13.0966 C.ar    1  UNL1        0.0371
      7 C          64.9814   90.7868   14.6291 C.3     1  UNL1        0.0295
      8 C          66.2046   91.6300   14.8355 C.3     1  UNL1        0.0261
      9 C          66.7272   92.4803   13.7155 C.3     1  UNL1        0.0910
     10 N          66.0264   92.4872   12.3893 N.pl3   1  UNL1       -0.3093
     11 C          66.5488   93.3374   11.2694 C.3     1  UNL1        0.0755
     12 C          67.4199   92.7299   10.2100 C.3     1  UNL1        0.0368
     13 C          67.9423   93.5802    9.0901 C.3     1  UNL1        0.0703
     14 N          67.5938   95.0378    9.0296 N.3     1  UNL1       -0.2974
     15 C          66.7228   95.6453   10.0890 C.3     1  UNL1        0.0703
     16 C          66.2003   94.7951   11.2089 C.3     1  UNL1        0.0368
     17 H          67.1231   95.1913    8.1378 H       1  UNL1        0.1232
     18 N          61.1333   89.1142   11.5641 N.pl3   1  UNL1       -0.1990
     19 H          60.4282   89.0934   12.2508 H       1  UNL1        0.2985
     20 N          60.1242   88.8053    9.1900 N.2     1  UNL1       -0.0985
     21 C          60.9843   88.3027   10.3114 C.2     1  UNL1        0.3224
     22 H          59.6574   89.6678    9.2762 H       1  UNL1        0.3633
     23 C          61.6955   86.9885   10.1801 C.ar    1  UNL1        0.1114
     24 C          62.3170   86.4436    8.9284 C.ar    1  UNL1        0.0144
     25 C          62.9156   85.1068    9.2521 C.ar    1  UNL1        0.0077
     26 C          62.6639   84.8256   10.7039 C.ar    1  UNL1        0.0357
     27 S          61.9098   85.9885   11.2774 S.2     1  UNL1       -0.0792
@<TRIPOS>BOND
     1    20    21    2
     2    21    18    1
     3    18     1    1
     4     1     2   ar
     5     2     3   ar
     6     3     4   ar
     7     4     5   ar
     8     5     6   ar
     9     5     7    1
    10     7     8    1
    11     8     9    1
    12     9    10    1
    13    10    11    1
    14    11    12    1
    15    12    13    1
    16    13    14    1
    17    14    15    1
    18    15    16    1
    19    21    23    1
    20    23    24   ar
    21    24    25   ar
    22    25    26   ar
    23    26    27   ar
    24     6     1   ar
    25    16    11    1
    26    27    23   ar
    27    10     4    1
    28    20    22    1
    29    18    19    1
    30    14    17    1
@<TRIPOS>MOLECULE
*****
 27 30 0 0 0
SMALL
GASTEIGER

@<TRIPOS>ATOM
      1 C          63.4494   90.0377   12.6717 C.ar    1  UNL1        0.1354
      2 C          63.9109   88.8888   13.5183 C.ar    1  UNL1        0.0414
      3 C          63.5834   87.4815   13.1157 C.ar    1  UNL1        0.0177
      4 C          62.7943   87.2231   11.8665 C.ar    1  UNL1        0.0440
      5 C          62.3327   88.3721   11.0198 C.ar    1  UNL1       -0.0054
      6 C          62.6603   89.7794   11.4224 C.ar    1  UNL1        0.0371
      7 C          61.5437   88.1137    9.7706 C.3     1  UNL1        0.0295
      8 C          61.2161   86.7064    9.3680 C.3     1  UNL1        0.0261
      9 C          61.6777   85.5573   10.2147 C.3     1  UNL1        0.0910
     10 N          62.4668   85.8157   11.4639 N.pl3   1  UNL1       -0.3093
     11 C          62.9283   84.6668   12.3105 C.3     1  UNL1        0.0755
     12 C          63.8832   83.6563   11.7475 C.3     1  UNL1        0.0368
     13 C          64.3448   82.5073   12.5942 C.3     1  UNL1        0.0703
     14 N          63.8514   82.3688   14.0039 N.3     1  UNL1       -0.2974
     15 C          62.8965   83.3793   14.5670 C.3     1  UNL1        0.0703
     16 C          62.4350   84.5282   13.7203 C.3     1  UNL1        0.0368
     17 H          64.6748   82.3744   14.6059 H       1  UNL1        0.1232
     18 N          63.7769   91.4452   13.0742 N.pl3   1  UNL1       -0.1990
     19 H          63.1231   91.9761   13.5841 H       1  UNL1        0.2985
     20 N          65.3913   92.3853   11.2687 N.2     1  UNL1       -0.0985
     21 C          65.1004   92.0435   12.7000 C.2     1  UNL1        0.3224
     22 H          64.7134   92.2168   10.5749 H       1  UNL1        0.3633
     23 C          66.1333   92.3002   13.7572 C.ar    1  UNL1        0.1114
     24 C          66.8288   91.2579   14.5816 C.ar    1  UNL1        0.0144
     25 C          67.7773   91.9578   15.5095 C.ar    1  UNL1        0.0077
     26 C          67.6678   93.4326   15.2583 C.ar    1  UNL1        0.0357
     27 S          66.6517   93.6442   14.1754 S.2     1  UNL1       -0.0792
@<TRIPOS>BOND
     1    20    21    2
     2    21    18    1
     3    18     1    1
     4     1     2   ar
     5     2     3   ar
     6     3     4   ar
     7     4     5   ar
     8     5     6   ar
     9     5     7    1
    10     7     8    1
    11     8     9    1
    12     9    10    1
    13    10    11    1
    14    11    12    1
    15    12    13    1
    16    13    14    1
    17    14    15    1
    18    15    16    1
    19    21    23    1
    20    23    24   ar
    21    24    25   ar
    22    25    26   ar
    23    26    27   ar
    24     6     1   ar
    25    16    11    1
    26    27    23   ar
    27    10     4    1
    28    20    22    1
    29    18    19    1
    30    14    17    1
@<TRIPOS>MOLECULE
*****
 27 30 0 0 0
SMALL
GASTEIGER

@<TRIPOS>ATOM
      1 C          63.8998   89.6722   13.6203 C.ar    1  UNL1        0.1354
      2 C          64.2313   88.4114   14.3620 C.ar    1  UNL1        0.0414
      3 C          63.8349   87.0809   13.7941 C.ar    1  UNL1        0.0177
      4 C          63.1071   87.0112   12.4844 C.ar    1  UNL1        0.0440
      5 C          62.7755   88.2721   11.7426 C.ar    1  UNL1       -0.0054
      6 C          63.1719   89.6026   12.3106 C.ar    1  UNL1        0.0371
      7 C          62.0477   88.2024   10.4329 C.3     1  UNL1        0.0295
      8 C          61.6513   86.8719    9.8649 C.3     1  UNL1        0.0261
      9 C          61.9828   85.6110   10.6067 C.3     1  UNL1        0.0910
     10 N          62.7107   85.6806   11.9164 N.pl3   1  UNL1       -0.3093
     11 C          63.0422   84.4197   12.6582 C.3     1  UNL1        0.0755
     12 C          63.9927   83.4255   12.0599 C.3     1  UNL1        0.0368
     13 C          64.3242   82.1645   12.8018 C.3     1  UNL1        0.0703
     14 N          63.7052   81.8980   14.1418 N.3     1  UNL1       -0.2974
     15 C          62.7547   82.8922   14.7401 C.3     1  UNL1        0.0703
     16 C          62.4232   84.1531   13.9983 C.3     1  UNL1        0.0368
     17 H          64.4730   81.7891   14.8044 H       1  UNL1        0.1232
     18 N          64.2961   91.0028   14.1882 N.pl3   1  UNL1       -0.1990
     19 H          63.6846   91.4817   14.7932 H       1  UNL1        0.2985
     20 N          66.8440   91.2498   14.6324 N.2     1  UNL1       -0.0985
     21 C          65.6241   91.6037   13.8344 C.2     1  UNL1        0.3224
     22 H          66.7730   90.6231   15.3883 H       1  UNL1        0.3633
     23 C          65.7324   92.5586   12.6826 C.ar    1  UNL1        0.1114
     24 C          65.2711   92.3022   11.2786 C.ar    1  UNL1        0.0144
     25 C          65.5745   93.5227   10.4608 C.ar    1  UNL1        0.0077
     26 C          66.2233   94.5333   11.3596 C.ar    1  UNL1        0.0357
     27 S          66.3209   93.9374   12.7328 S.2     1  UNL1       -0.0792
@<TRIPOS>BOND
     1    20    21    2
     2    21    18    1
     3    18     1    1
     4     1     2   ar
     5     2     3   ar
     6     3     4   ar
     7     4     5   ar
     8     5     6   ar
     9     5     7    1
    10     7     8    1
    11     8     9    1
    12     9    10    1
    13    10    11    1
    14    11    12    1
    15    12    13    1
    16    13    14    1
    17    14    15    1
    18    15    16    1
    19    21    23    1
    20    23    24   ar
    21    24    25   ar
    22    25    26   ar
    23    26    27   ar
    24     6     1   ar
    25    16    11    1
    26    27    23   ar
    27    10     4    1
    28    20    22    1
    29    18    19    1
    30    14    17    1
@<TRIPOS>MOLECULE
*****
 27 30 0 0 0
SMALL
GASTEIGER

@<TRIPOS>ATOM
      1 C          63.9013   85.7374   14.1187 C.ar    1  UNL1        0.1354
      2 C          64.6044   86.7608   14.9603 C.ar    1  UNL1        0.0414
      3 C          64.5855   88.2052   14.5564 C.ar    1  UNL1        0.0177
      4 C          63.8635   88.6263   13.3108 C.ar    1  UNL1        0.0440
      5 C          63.1605   87.6029   12.4692 C.ar    1  UNL1       -0.0054
      6 C          63.1793   86.1585   12.8731 C.ar    1  UNL1        0.0371
      7 C          62.4385   88.0240   11.2236 C.3     1  UNL1        0.0295
      8 C          62.4196   89.4685   10.8197 C.3     1  UNL1        0.0261
      9 C          63.1227   90.4919   11.6613 C.3     1  UNL1        0.0910
     10 N          63.8447   90.0708   12.9069 N.pl3   1  UNL1       -0.3093
     11 C          64.5478   91.0941   13.7485 C.3     1  UNL1        0.0755
     12 C          65.5199   92.0456   13.1163 C.3     1  UNL1        0.0368
     13 C          66.2230   93.0690   13.9580 C.3     1  UNL1        0.0703
     14 N          65.9540   93.1409   15.4319 N.3     1  UNL1       -0.2974
     15 C          64.9818   92.1894   16.0642 C.3     1  UNL1        0.0703
     16 C          64.2788   91.1661   15.2225 C.3     1  UNL1        0.0368
     17 H          65.6112   94.0823   15.6231 H       1  UNL1        0.1232
     18 N          63.9202   84.2929   14.5226 N.pl3   1  UNL1       -0.1990
     19 H          63.9089   84.0482   15.4761 H       1  UNL1        0.2985
     20 N          64.9417   83.3081   12.3462 N.2     1  UNL1       -0.0985
     21 C          63.9562   83.2212   13.4737 C.2     1  UNL1        0.3224
     22 H          65.5649   84.0685   12.2946 H       1  UNL1        0.3633
     23 C          63.0067   82.0626   13.5522 C.ar    1  UNL1        0.1114
     24 C          61.7123   82.0334   14.3097 C.ar    1  UNL1        0.0144
     25 C          61.0905   80.6825   14.1128 C.ar    1  UNL1        0.0077
     26 C          62.0006   79.8771   13.2335 C.ar    1  UNL1        0.0357
     27 S          63.1848   80.7300   12.8871 S.2     1  UNL1       -0.0792
@<TRIPOS>BOND
     1    20    21    2
     2    21    18    1
     3    18     1    1
     4     1     2   ar
     5     2     3   ar
     6     3     4   ar
     7     4     5   ar
     8     5     6   ar
     9     5     7    1
    10     7     8    1
    11     8     9    1
    12     9    10    1
    13    10    11    1
    14    11    12    1
    15    12    13    1
    16    13    14    1
    17    14    15    1
    18    15    16    1
    19    21    23    1
    20    23    24   ar
    21    24    25   ar
    22    25    26   ar
    23    26    27   ar
    24     6     1   ar
    25    16    11    1
    26    27    23   ar
    27    10     4    1
    28    20    22    1
    29    18    19    1
    30    14    17    1
@<TRIPOS>MOLECULE
*****
 27 30 0 0 0
SMALL
GASTEIGER

@<TRIPOS>ATOM
      1 C          64.1902   85.2169   14.1563 C.ar    1  UNL1        0.1354
      2 C          64.7863   86.2498   15.0660 C.ar    1  UNL1        0.0414
      3 C          64.6133   87.7080   14.7602 C.ar    1  UNL1        0.0177
      4 C          63.8443   88.1333   13.5446 C.ar    1  UNL1        0.0440
      5 C          63.2482   87.1004   12.6348 C.ar    1  UNL1       -0.0054
      6 C          63.4212   85.6422   12.9406 C.ar    1  UNL1        0.0371
      7 C          62.4792   87.5257   11.4192 C.3     1  UNL1        0.0295
      8 C          62.3062   88.9840   11.1134 C.3     1  UNL1        0.0261
      9 C          62.9023   90.0170   12.0232 C.3     1  UNL1        0.0910
     10 N          63.6713   89.5917   13.2388 N.pl3   1  UNL1       -0.3093
     11 C          64.2674   90.6246   14.1486 C.3     1  UNL1        0.0755
     12 C          63.7120   90.8189   15.5284 C.3     1  UNL1        0.0368
     13 C          64.3081   91.8519   16.4382 C.3     1  UNL1        0.0703
     14 N          65.4596   92.6905   15.9682 N.3     1  UNL1       -0.2974
     15 C          66.0149   92.4962   14.5884 C.3     1  UNL1        0.0703
     16 C          65.4189   91.4633   13.6786 C.3     1  UNL1        0.0368
     17 H          66.2272   92.5286   16.6200 H       1  UNL1        0.1232
     18 N          64.3632   83.7585   14.4621 N.pl3   1  UNL1       -0.1990
     19 H          65.1913   83.4398   14.8885 H       1  UNL1        0.2985
     20 N          62.1808   82.5042   15.1055 N.2     1  UNL1       -0.0985
     21 C          63.2744   82.7858   14.1181 C.2     1  UNL1        0.3224
     22 H          62.1777   82.9577   15.9793 H       1  UNL1        0.3633
     23 C          63.2791   82.0948   12.7867 C.ar    1  UNL1        0.1114
     24 C          63.8680   82.6326   11.5164 C.ar    1  UNL1        0.0144
     25 C          63.6486   81.6148   10.4365 C.ar    1  UNL1        0.0077
     26 C          62.9241   80.4480   11.0396 C.ar    1  UNL1        0.0357
     27 S          62.6957   80.7447   12.4921 S.2     1  UNL1       -0.0792
@<TRIPOS>BOND
     1    20    21    2
     2    21    18    1
     3    18     1    1
     4     1     2   ar
     5     2     3   ar
     6     3     4   ar
     7     4     5   ar
     8     5     6   ar
     9     5     7    1
    10     7     8    1
    11     8     9    1
    12     9    10    1
    13    10    11    1
    14    11    12    1
    15    12    13    1
    16    13    14    1
    17    14    15    1
    18    15    16    1
    19    21    23    1
    20    23    24   ar
    21    24    25   ar
    22    25    26   ar
    23    26    27   ar
    24     6     1   ar
    25    16    11    1
    26    27    23   ar
    27    10     4    1
    28    20    22    1
    29    18    19    1
    30    14    17    1
@<TRIPOS>MOLECULE
*****
 27 30 0 0 0
SMALL
GASTEIGER

@<TRIPOS>ATOM
      1 C          62.6284   87.8361   11.2779 C.ar    1  UNL1        0.1354
      2 C          62.1853   86.4480   10.9219 C.ar    1  UNL1        0.0414
      3 C          62.4860   85.3048   11.8453 C.ar    1  UNL1        0.0177
      4 C          63.2298   85.5498   13.1246 C.ar    1  UNL1        0.0440
      5 C          63.6729   86.9379   13.4806 C.ar    1  UNL1       -0.0054
      6 C          63.3721   88.0811   12.5572 C.ar    1  UNL1        0.0371
      7 C          64.4167   87.1829   14.7600 C.3     1  UNL1        0.0295
      8 C          64.7174   86.0397   15.6834 C.3     1  UNL1        0.0261
      9 C          64.2743   84.6515   15.3274 C.3     1  UNL1        0.0910
     10 N          63.5305   84.4065   14.0481 N.pl3   1  UNL1       -0.3093
     11 C          63.0874   83.0184   13.6921 C.3     1  UNL1        0.0755
     12 C          63.7485   82.2869   12.5617 C.3     1  UNL1        0.0368
     13 C          63.3054   80.8987   12.2057 C.3     1  UNL1        0.0703
     14 N          62.2013   80.2421   12.9801 N.3     1  UNL1       -0.2974
     15 C          61.5402   80.9736   14.1105 C.3     1  UNL1        0.0703
     16 C          61.9833   82.3618   14.4665 C.3     1  UNL1        0.0368
     17 H          62.5867   79.3825   13.3711 H       1  UNL1        0.1232
     18 N          62.3276   88.9794   10.3545 N.pl3   1  UNL1       -0.1990
     19 H          63.0639   89.4707    9.9234 H       1  UNL1        0.2985
     20 N          60.2388   90.4049   10.9499 N.2     1  UNL1       -0.0985
     21 C          60.9053   89.3740   10.0879 C.2     1  UNL1        0.3224
     22 H          60.7349   90.8226   11.6906 H       1  UNL1        0.3633
     23 C          60.1493   88.7377    8.9593 C.ar    1  UNL1        0.1114
     24 C          59.7563   89.4049    7.6746 C.ar    1  UNL1        0.0144
     25 C          59.0177   88.4020    6.8385 C.ar    1  UNL1        0.0077
     26 C          58.9543   87.1151    7.6066 C.ar    1  UNL1        0.0357
     27 S          59.6537   87.3226    8.9173 S.2     1  UNL1       -0.0792
@<TRIPOS>BOND
     1    20    21    2
     2    21    18    1
     3    18     1    1
     4     1     2   ar
     5     2     3   ar
     6     3     4   ar
     7     4     5   ar
     8     5     6   ar
     9     5     7    1
    10     7     8    1
    11     8     9    1
    12     9    10    1
    13    10    11    1
    14    11    12    1
    15    12    13    1
    16    13    14    1
    17    14    15    1
    18    15    16    1
    19    21    23    1
    20    23    24   ar
    21    24    25   ar
    22    25    26   ar
    23    26    27   ar
    24     6     1   ar
    25    16    11    1
    26    27    23   ar
    27    10     4    1
    28    20    22    1
    29    18    19    1
    30    14    17    1
@<TRIPOS>MOLECULE
*****
 27 30 0 0 0
SMALL
GASTEIGER

@<TRIPOS>ATOM
      1 C          63.9740   90.1563   14.9406 C.ar    1  UNL1        0.1354
      2 C          64.1955   89.3126   13.7203 C.ar    1  UNL1        0.0414
      3 C          63.9661   87.8315   13.7810 C.ar    1  UNL1        0.0177
      4 C          63.5152   87.1942   15.0618 C.ar    1  UNL1        0.0440
      5 C          63.2937   88.0379   16.2820 C.ar    1  UNL1       -0.0054
      6 C          63.5231   89.5190   16.2214 C.ar    1  UNL1        0.0371
      7 C          62.8428   87.4006   17.5628 C.3     1  UNL1        0.0295
      8 C          62.6134   85.9196   17.6235 C.3     1  UNL1        0.0261
      9 C          62.8348   85.0757   16.4032 C.3     1  UNL1        0.0910
     10 N          63.2857   85.7130   15.1224 N.pl3   1  UNL1       -0.3093
     11 C          63.5072   84.8693   13.9022 C.3     1  UNL1        0.0755
     12 C          64.7122   83.9804   13.8135 C.3     1  UNL1        0.0368
     13 C          64.9336   83.1366   12.5932 C.3     1  UNL1        0.0703
     14 N          63.9501   83.1817   11.4616 N.3     1  UNL1       -0.2974
     15 C          62.7451   84.0706   11.5503 C.3     1  UNL1        0.0703
     16 C          62.5236   84.9143   12.7705 C.3     1  UNL1        0.0368
     17 H          63.6054   82.2304   11.3330 H       1  UNL1        0.1232
     18 N          64.2035   91.6375   14.8800 N.pl3   1  UNL1       -0.1990
     19 H          63.7127   92.1853   14.2255 H       1  UNL1        0.2985
     20 N          64.7122   92.8189   17.1373 N.2     1  UNL1       -0.0985
     21 C          65.1807   92.2840   15.8165 C.2     1  UNL1        0.3224
     22 H          63.7634   92.7456   17.3895 H       1  UNL1        0.3633
     23 C          66.6264   92.3956   15.4322 C.ar    1  UNL1        0.1114
     24 C          67.7030   93.0632   16.2355 C.ar    1  UNL1        0.0144
     25 C          68.9913   92.9395   15.4770 C.ar    1  UNL1        0.0077
     26 C          68.7107   92.1955   14.2050 C.ar    1  UNL1        0.0357
     27 S          67.2491   91.8594   14.1774 S.2     1  UNL1       -0.0792
@<TRIPOS>BOND
     1    20    21    2
     2    21    18    1
     3    18     1    1
     4     1     2   ar
     5     2     3   ar
     6     3     4   ar
     7     4     5   ar
     8     5     6   ar
     9     5     7    1
    10     7     8    1
    11     8     9    1
    12     9    10    1
    13    10    11    1
    14    11    12    1
    15    12    13    1
    16    13    14    1
    17    14    15    1
    18    15    16    1
    19    21    23    1
    20    23    24   ar
    21    24    25   ar
    22    25    26   ar
    23    26    27   ar
    24     6     1   ar
    25    16    11    1
    26    27    23   ar
    27    10     4    1
    28    20    22    1
    29    18    19    1
    30    14    17    1
@<TRIPOS>MOLECULE
*****
 27 30 0 0 0
SMALL
GASTEIGER

@<TRIPOS>ATOM
      1 C          62.3430   85.3691   10.9401 C.ar    1  UNL1        0.1354
      2 C          63.2499   85.9496   11.9844 C.ar    1  UNL1        0.0414
      3 C          63.2198   87.4220   12.2692 C.ar    1  UNL1        0.0177
      4 C          62.2829   88.3138   11.5097 C.ar    1  UNL1        0.0440
      5 C          61.3761   87.7333   10.4654 C.ar    1  UNL1       -0.0054
      6 C          61.4061   86.2609   10.1806 C.ar    1  UNL1        0.0371
      7 C          60.4392   88.6251    9.7059 C.3     1  UNL1        0.0295
      8 C          60.4091   90.0975    9.9906 C.3     1  UNL1        0.0261
      9 C          61.3160   90.6781   11.0350 C.3     1  UNL1        0.0910
     10 N          62.2529   89.7863   11.7945 N.pl3   1  UNL1       -0.3093
     11 C          63.1597   90.3669   12.8387 C.3     1  UNL1        0.0755
     12 C          62.9596   90.0180   14.2838 C.3     1  UNL1        0.0368
     13 C          63.8665   90.5986   15.3281 C.3     1  UNL1        0.0703
     14 N          64.9734   91.5280   14.9273 N.3     1  UNL1       -0.2974
     15 C          65.1736   91.8770   13.4823 C.3     1  UNL1        0.0703
     16 C          64.2667   91.2964   12.4380 C.3     1  UNL1        0.0368
     17 H          65.8438   91.1066   15.2517 H       1  UNL1        0.1232
     18 N          62.3731   83.8966   10.6553 N.pl3   1  UNL1       -0.1990
     19 H          61.7639   83.5126    9.9840 H       1  UNL1        0.2985
     20 N          64.8015   83.0919   11.1080 N.2     1  UNL1       -0.0985
     21 C          63.3312   83.0094   11.3933 C.2     1  UNL1        0.3224
     22 H          65.1377   83.7284   10.4364 H       1  UNL1        0.3633
     23 C          62.8191   82.0395   12.4167 C.ar    1  UNL1        0.1114
     24 C          62.7626   80.5481   12.2671 C.ar    1  UNL1        0.0144
     25 C          62.1822   79.9776   13.5273 C.ar    1  UNL1        0.0077
     26 C          61.8800   81.1166   14.4555 C.ar    1  UNL1        0.0357
     27 S          62.2737   82.3909   13.7691 S.2     1  UNL1       -0.0792
@<TRIPOS>BOND
     1    20    21    2
     2    21    18    1
     3    18     1    1
     4     1     2   ar
     5     2     3   ar
     6     3     4   ar
     7     4     5   ar
     8     5     6   ar
     9     5     7    1
    10     7     8    1
    11     8     9    1
    12     9    10    1
    13    10    11    1
    14    11    12    1
    15    12    13    1
    16    13    14    1
    17    14    15    1
    18    15    16    1
    19    21    23    1
    20    23    24   ar
    21    24    25   ar
    22    25    26   ar
    23    26    27   ar
    24     6     1   ar
    25    16    11    1
    26    27    23   ar
    27    10     4    1
    28    20    22    1
    29    18    19    1
    30    14    17    1
