@<TRIPOS>MOLECULE
*****
 26 30 0 0 0
SMALL
GASTEIGER

@<TRIPOS>ATOM
      1 C          63.3498   89.5482   12.8296 C.3     1  UNL1        0.0579
      2 C          62.4972   90.0270   11.6922 C.3     1  UNL1        0.0163
      3 C          62.0247   88.8253   10.9292 C.3     1  UNL1        0.0059
      4 C          62.5853   87.6036   11.5950 C.3     1  UNL1        0.0273
      5 C          63.2581   86.5563   12.4320 C.3     1  UNL1        0.0336
      6 C          63.2336   85.0660   12.2632 C.ar    1  UNL1        0.0127
      7 C          64.0439   84.3810   13.3234 C.ar    1  UNL1       -0.0012
      8 C          64.1508   82.8849   13.3361 C.ar    1  UNL1       -0.0001
      9 C          63.4474   82.0738   12.2885 C.ar    1  UNL1        0.0031
     10 C          62.6371   82.7588   11.2283 C.ar    1  UNL1        0.0372
     11 C          62.5302   84.2549   11.2157 C.ar    1  UNL1        0.1413
     12 O          61.6776   84.7338   10.0782 O.3     1  UNL1       -0.4541
     13 C          61.3177   86.1420    9.7073 C.ar    1  UNL1        0.1412
     14 C          60.4382   86.1813    8.4929 C.ar    1  UNL1        0.0372
     15 C          59.9627   87.4977    7.9535 C.ar    1  UNL1        0.0031
     16 C          60.3667   88.7748    8.6285 C.ar    1  UNL1       -0.0001
     17 C          61.2462   88.7356    9.8430 C.ar    1  UNL1       -0.0013
     18 C          61.7218   87.4192   10.3824 C.ar    1  UNL1        0.0121
     19 C          63.4043   88.0504   12.7696 C.3     1  UNL1        0.0204
     20 C          64.9889   91.6408   15.2890 C.3     1  UNL1        0.0684
     21 C          65.1223   91.4409   13.8083 C.3     1  UNL1        0.0790
     22 N          64.0287   90.4150   13.8483 N.3     1  UNL1       -0.2732
     23 C          63.8954   90.6149   15.3290 C.3     1  UNL1        0.0790
     24 O          67.0567   93.0146   16.0552 O.co2   1  UNL1       -0.5491
     25 C          65.6678   92.5076   16.3077 C.2     1  UNL1        0.0527
     26 O          64.9577   92.8672   17.5791 O.co2   1  UNL1       -0.5491
@<TRIPOS>UNITY_ATOM_ATTR
24 1
charge -1
@<TRIPOS>BOND
     1    24    25   ar
     2    25    26   ar
     3    25    20    1
     4    20    21    1
     5    21    22    1
     6    22     1    1
     7     1     2    1
     8     2     3    1
     9     3     4    1
    10     4     5    1
    11     5     6    1
    12     6     7   ar
    13     7     8   ar
    14     8     9   ar
    15     9    10   ar
    16    10    11   ar
    17    11    12    1
    18    12    13    1
    19    13    14   ar
    20    14    15   ar
    21    15    16   ar
    22    16    17   ar
    23    17    18   ar
    24     4    19    1
    25    22    23    1
    26    23    20    1
    27    19     1    1
    28    18     4    1
    29    11     6   ar
    30    18    13   ar
@<TRIPOS>MOLECULE
*****
 26 30 0 0 0
SMALL
GASTEIGER

@<TRIPOS>ATOM
      1 C          62.7732   85.0239   12.4290 C.3     1  UNL1        0.0579
      2 C          63.5233   86.0597   13.2128 C.3     1  UNL1        0.0163
      3 C          63.2316   87.4006   12.6071 C.3     1  UNL1        0.0059
      4 C          62.3012   87.1934   11.4489 C.3     1  UNL1        0.0273
      5 C          61.3865   86.7259   10.3559 C.3     1  UNL1        0.0336
      6 C          60.6828   87.5418    9.3122 C.ar    1  UNL1        0.0127
      7 C          59.8590   86.6775    8.4043 C.ar    1  UNL1       -0.0012
      8 C          59.0726   87.2982    7.2880 C.ar    1  UNL1       -0.0001
      9 C          59.1099   88.7832    7.0796 C.ar    1  UNL1        0.0031
     10 C          59.9336   89.6475    7.9875 C.ar    1  UNL1        0.0372
     11 C          60.7201   89.0268    9.1038 C.ar    1  UNL1        0.1413
     12 O          61.4703   90.0626    9.8876 O.3     1  UNL1       -0.4541
     13 C          62.3684   89.8694   11.0734 C.ar    1  UNL1        0.1412
     14 C          62.9229   91.1755   11.5596 C.ar    1  UNL1        0.0372
     15 C          63.8473   91.2048   12.7406 C.ar    1  UNL1        0.0031
     16 C          64.2170   89.9279   13.4354 C.ar    1  UNL1       -0.0001
     17 C          63.6625   88.6217   12.9492 C.ar    1  UNL1       -0.0013
     18 C          62.7381   88.5924   11.7682 C.ar    1  UNL1        0.0121
     19 C          62.0178   85.7246   11.3388 C.3     1  UNL1        0.0204
     20 C          62.7839   81.4577   13.0582 C.3     1  UNL1        0.0684
     21 C          63.1634   82.3315   11.8995 C.3     1  UNL1        0.0790
     22 N          62.7776   83.5468   12.6897 N.3     1  UNL1       -0.2732
     23 C          62.3981   82.6730   13.8483 C.3     1  UNL1        0.0790
     24 O          62.4805   79.0217   12.2073 O.co2   1  UNL1       -0.5491
     25 C          62.7883   79.9805   13.3189 C.2     1  UNL1        0.0527
     26 O          63.1006   79.4622   14.6915 O.co2   1  UNL1       -0.5491
@<TRIPOS>UNITY_ATOM_ATTR
24 1
charge -1
@<TRIPOS>BOND
     1    24    25   ar
     2    25    26   ar
     3    25    20    1
     4    20    21    1
     5    21    22    1
     6    22     1    1
     7     1     2    1
     8     2     3    1
     9     3     4    1
    10     4     5    1
    11     5     6    1
    12     6     7   ar
    13     7     8   ar
    14     8     9   ar
    15     9    10   ar
    16    10    11   ar
    17    11    12    1
    18    12    13    1
    19    13    14   ar
    20    14    15   ar
    21    15    16   ar
    22    16    17   ar
    23    17    18   ar
    24     4    19    1
    25    22    23    1
    26    23    20    1
    27    19     1    1
    28    18     4    1
    29    11     6   ar
    30    18    13   ar
@<TRIPOS>MOLECULE
*****
 26 30 0 0 0
SMALL
GASTEIGER

@<TRIPOS>ATOM
      1 C          60.7948   87.9056    9.1313 C.3     1  UNL1        0.0579
      2 C          60.8597   86.4108    9.2364 C.3     1  UNL1        0.0163
      3 C          61.6930   86.0661   10.4350 C.3     1  UNL1        0.0059
      4 C          62.1430   87.3480   11.0708 C.3     1  UNL1        0.0273
      5 C          62.4556   88.7484   11.5082 C.3     1  UNL1        0.0336
      6 C          63.2748   89.2013   12.6803 C.ar    1  UNL1        0.0127
      7 C          63.3380   90.6979   12.7591 C.ar    1  UNL1       -0.0012
      8 C          64.1102   91.3588   13.8622 C.ar    1  UNL1       -0.0001
      9 C          64.8193   90.5231   14.8864 C.ar    1  UNL1        0.0031
     10 C          64.7560   89.0266   14.8075 C.ar    1  UNL1        0.0372
     11 C          63.9838   88.3657   13.7045 C.ar    1  UNL1        0.1413
     12 O          64.0487   86.8707   13.8095 O.3     1  UNL1       -0.4541
     13 C          63.4207   85.8422   12.9164 C.ar    1  UNL1        0.1412
     14 C          63.7347   84.4501   13.3782 C.ar    1  UNL1        0.0372
     15 C          63.2007   83.2704   12.6212 C.ar    1  UNL1        0.0031
     16 C          62.3527   83.4828   11.4023 C.ar    1  UNL1       -0.0001
     17 C          62.0386   84.8749   10.9405 C.ar    1  UNL1       -0.0013
     18 C          62.5726   86.0547   11.6975 C.ar    1  UNL1        0.0121
     19 C          61.5879   88.4849   10.2651 C.3     1  UNL1        0.0204
     20 C          59.0325   89.7861    6.5872 C.3     1  UNL1        0.0684
     21 C          59.0160   88.3610    7.0551 C.3     1  UNL1        0.0790
     22 N          60.0648   88.6846    8.0775 N.3     1  UNL1       -0.2732
     23 C          60.0812   90.1097    7.6097 C.3     1  UNL1        0.0790
     24 O          59.0723   91.3401    4.5056 O.co2   1  UNL1       -0.5491
     25 C          58.3026   90.5651    5.5335 C.2     1  UNL1        0.0527
     26 O          56.8028   90.5690    5.5077 O.co2   1  UNL1       -0.5491
@<TRIPOS>UNITY_ATOM_ATTR
24 1
charge -1
@<TRIPOS>BOND
     1    24    25   ar
     2    25    26   ar
     3    25    20    1
     4    20    21    1
     5    21    22    1
     6    22     1    1
     7     1     2    1
     8     2     3    1
     9     3     4    1
    10     4     5    1
    11     5     6    1
    12     6     7   ar
    13     7     8   ar
    14     8     9   ar
    15     9    10   ar
    16    10    11   ar
    17    11    12    1
    18    12    13    1
    19    13    14   ar
    20    14    15   ar
    21    15    16   ar
    22    16    17   ar
    23    17    18   ar
    24     4    19    1
    25    22    23    1
    26    23    20    1
    27    19     1    1
    28    18     4    1
    29    11     6   ar
    30    18    13   ar
@<TRIPOS>MOLECULE
*****
 26 30 0 0 0
SMALL
GASTEIGER

@<TRIPOS>ATOM
      1 C          64.0013   88.3025   14.0306 C.3     1  UNL1        0.0579
      2 C          64.4161   86.9149   14.4211 C.3     1  UNL1        0.0163
      3 C          63.8386   85.9594   13.4195 C.3     1  UNL1        0.0059
      4 C          63.0668   86.7564   12.4100 C.3     1  UNL1        0.0273
      5 C          62.3711   87.7662   11.5462 C.3     1  UNL1        0.0336
      6 C          61.5553   87.5351   10.3088 C.ar    1  UNL1        0.0127
      7 C          61.0345   88.8246    9.7468 C.ar    1  UNL1       -0.0012
      8 C          60.1922   88.8159    8.5057 C.ar    1  UNL1       -0.0001
      9 C          59.8707   87.5177    7.8266 C.ar    1  UNL1        0.0031
     10 C          60.3915   86.2282    8.3885 C.ar    1  UNL1        0.0372
     11 C          61.2338   86.2369    9.6296 C.ar    1  UNL1        0.1413
     12 O          61.6486   84.8492   10.0201 O.3     1  UNL1       -0.4541
     13 C          62.4874   84.4170   11.1861 C.ar    1  UNL1        0.1412
     14 C          62.6651   82.9279   11.2114 C.ar    1  UNL1        0.0372
     15 C          63.4740   82.2874   12.3002 C.ar    1  UNL1        0.0031
     16 C          64.1051   83.1361   13.3638 C.ar    1  UNL1       -0.0001
     17 C          63.9274   84.6254   13.3385 C.ar    1  UNL1       -0.0013
     18 C          63.1186   85.2659   12.2497 C.ar    1  UNL1        0.0121
     19 C          63.1674   88.2046   12.7877 C.3     1  UNL1        0.0204
     20 C          64.8621   91.3534   15.7814 C.3     1  UNL1        0.0684
     21 C          65.4120   90.6209   14.5935 C.3     1  UNL1        0.0790
     22 N          64.3578   89.5662   14.7559 N.3     1  UNL1       -0.2732
     23 C          63.8079   90.2987   15.9438 C.3     1  UNL1        0.0790
     24 O          64.1699   93.3582   17.2819 O.co2   1  UNL1       -0.5491
     25 C          65.2185   92.6171   16.5067 C.2     1  UNL1        0.0527
     26 O          66.6237   93.1396   16.4567 O.co2   1  UNL1       -0.5491
@<TRIPOS>UNITY_ATOM_ATTR
24 1
charge -1
@<TRIPOS>BOND
     1    24    25   ar
     2    25    26   ar
     3    25    20    1
     4    20    21    1
     5    21    22    1
     6    22     1    1
     7     1     2    1
     8     2     3    1
     9     3     4    1
    10     4     5    1
    11     5     6    1
    12     6     7   ar
    13     7     8   ar
    14     8     9   ar
    15     9    10   ar
    16    10    11   ar
    17    11    12    1
    18    12    13    1
    19    13    14   ar
    20    14    15   ar
    21    15    16   ar
    22    16    17   ar
    23    17    18   ar
    24     4    19    1
    25    22    23    1
    26    23    20    1
    27    19     1    1
    28    18     4    1
    29    11     6   ar
    30    18    13   ar
@<TRIPOS>MOLECULE
*****
 26 30 0 0 0
SMALL
GASTEIGER

@<TRIPOS>ATOM
      1 C          64.6945   90.4764   13.3950 C.3     1  UNL1        0.0579
      2 C          63.7352   91.0249   12.3808 C.3     1  UNL1        0.0163
      3 C          62.8906   89.8907   11.8808 C.3     1  UNL1        0.0059
      4 C          63.3279   88.6411   12.5861 C.3     1  UNL1        0.0273
      5 C          63.9421   87.5521   13.4148 C.3     1  UNL1        0.0336
      6 C          63.5937   86.0935   13.4493 C.ar    1  UNL1        0.0127
      7 C          64.4564   85.3468   14.4230 C.ar    1  UNL1       -0.0012
      8 C          64.2704   83.8704   14.6109 C.ar    1  UNL1       -0.0001
      9 C          63.2216   83.1406   13.8252 C.ar    1  UNL1        0.0031
     10 C          62.3588   83.8872   12.8515 C.ar    1  UNL1        0.0372
     11 C          62.5449   85.3637   12.6635 C.ar    1  UNL1        0.1413
     12 O          61.5856   85.9123   11.6492 O.3     1  UNL1       -0.4541
     13 C          61.4380   87.3260   11.1701 C.ar    1  UNL1        0.1412
     14 C          60.3514   87.4461   10.1431 C.ar    1  UNL1        0.0372
     15 C          60.0402   88.7806    9.5330 C.ar    1  UNL1        0.0031
     16 C          60.8156   89.9950    9.9499 C.ar    1  UNL1       -0.0001
     17 C          61.9023   89.8750   10.9770 C.ar    1  UNL1       -0.0013
     18 C          62.2135   88.5405   11.5871 C.ar    1  UNL1        0.0121
     19 C          64.4428   89.0031   13.5220 C.3     1  UNL1        0.0204
     20 C          67.1817   92.3756   15.2175 C.3     1  UNL1        0.0684
     21 C          67.1570   91.6394   13.9108 C.3     1  UNL1        0.0790
     22 N          65.7247   91.2630   14.1499 N.3     1  UNL1       -0.2732
     23 C          65.7495   91.9992   15.4566 C.3     1  UNL1        0.0790
     24 O          69.3039   92.4504   16.7144 O.co2   1  UNL1       -0.5491
     25 C          68.2119   93.1622   15.9724 C.2     1  UNL1        0.0527
     26 O          68.1499   94.6609   15.9854 O.co2   1  UNL1       -0.5491
@<TRIPOS>UNITY_ATOM_ATTR
24 1
charge -1
@<TRIPOS>BOND
     1    24    25   ar
     2    25    26   ar
     3    25    20    1
     4    20    21    1
     5    21    22    1
     6    22     1    1
     7     1     2    1
     8     2     3    1
     9     3     4    1
    10     4     5    1
    11     5     6    1
    12     6     7   ar
    13     7     8   ar
    14     8     9   ar
    15     9    10   ar
    16    10    11   ar
    17    11    12    1
    18    12    13    1
    19    13    14   ar
    20    14    15   ar
    21    15    16   ar
    22    16    17   ar
    23    17    18   ar
    24     4    19    1
    25    22    23    1
    26    23    20    1
    27    19     1    1
    28    18     4    1
    29    11     6   ar
    30    18    13   ar
@<TRIPOS>MOLECULE
*****
 26 30 0 0 0
SMALL
GASTEIGER

@<TRIPOS>ATOM
      1 C          63.5679   90.3407   11.8585 C.3     1  UNL1        0.0579
      2 C          62.6218   90.6608   10.7395 C.3     1  UNL1        0.0163
      3 C          61.9648   89.3832   10.3082 C.3     1  UNL1        0.0059
      4 C          62.5050   88.2735   11.1608 C.3     1  UNL1        0.0273
      5 C          63.1911   87.3571   12.1300 C.3     1  UNL1        0.0336
      6 C          63.0279   85.8747   12.2915 C.ar    1  UNL1        0.0127
      7 C          63.9063   85.3425   13.3846 C.ar    1  UNL1       -0.0012
      8 C          63.8951   83.8783   13.7098 C.ar    1  UNL1       -0.0001
      9 C          63.0055   82.9462   12.9418 C.ar    1  UNL1        0.0031
     10 C          62.1270   83.4784   11.8487 C.ar    1  UNL1        0.0372
     11 C          62.1382   84.9427   11.5235 C.ar    1  UNL1        0.1413
     12 O          61.1921   85.2628   10.4044 O.3     1  UNL1       -0.4541
     13 C          60.9018   86.5939    9.7769 C.ar    1  UNL1        0.1412
     14 C          59.8847   86.4732    8.6810 C.ar    1  UNL1        0.0372
     15 C          59.4519   87.6923    7.9218 C.ar    1  UNL1        0.0031
     16 C          60.0362   89.0322    8.2584 C.ar    1  UNL1       -0.0001
     17 C          61.0533   89.1529    9.3543 C.ar    1  UNL1       -0.0013
     18 C          61.4862   87.9338   10.1135 C.ar    1  UNL1        0.0121
     19 C          63.4958   88.8653   12.1189 C.3     1  UNL1        0.0204
     20 C          65.6593   92.7135   13.6221 C.3     1  UNL1        0.0684
     21 C          64.7430   91.5985   14.0309 C.3     1  UNL1        0.0790
     22 N          64.4342   91.3236   12.5890 N.3     1  UNL1       -0.2732
     23 C          65.3505   92.4386   12.1802 C.3     1  UNL1        0.0790
     24 O          66.6749   95.0956   13.8330 O.co2   1  UNL1       -0.5491
     25 C          66.5256   93.6964   14.3524 C.2     1  UNL1        0.0527
     26 O          67.2428   93.2800   15.6024 O.co2   1  UNL1       -0.5491
@<TRIPOS>UNITY_ATOM_ATTR
24 1
charge -1
@<TRIPOS>BOND
     1    24    25   ar
     2    25    26   ar
     3    25    20    1
     4    20    21    1
     5    21    22    1
     6    22     1    1
     7     1     2    1
     8     2     3    1
     9     3     4    1
    10     4     5    1
    11     5     6    1
    12     6     7   ar
    13     7     8   ar
    14     8     9   ar
    15     9    10   ar
    16    10    11   ar
    17    11    12    1
    18    12    13    1
    19    13    14   ar
    20    14    15   ar
    21    15    16   ar
    22    16    17   ar
    23    17    18   ar
    24     4    19    1
    25    22    23    1
    26    23    20    1
    27    19     1    1
    28    18     4    1
    29    11     6   ar
    30    18    13   ar
@<TRIPOS>MOLECULE
*****
 26 30 0 0 0
SMALL
GASTEIGER

@<TRIPOS>ATOM
      1 C          64.4584   88.9671   13.7433 C.3     1  UNL1        0.0579
      2 C          64.7041   87.6413   14.4003 C.3     1  UNL1        0.0163
      3 C          63.9200   86.6022   13.6551 C.3     1  UNL1        0.0059
      4 C          63.1896   87.2859   12.5374 C.3     1  UNL1        0.0273
      5 C          62.5758   88.1933   11.5128 C.3     1  UNL1        0.0336
      6 C          61.6394   87.8432   10.3945 C.ar    1  UNL1        0.0127
      7 C          61.2616   89.0556    9.5962 C.ar    1  UNL1       -0.0012
      8 C          60.3300   88.9240    8.4280 C.ar    1  UNL1       -0.0001
      9 C          59.7762   87.5800    8.0581 C.ar    1  UNL1        0.0031
     10 C          60.1539   86.3675    8.8564 C.ar    1  UNL1        0.0372
     11 C          61.0855   86.4992   10.0246 C.ar    1  UNL1        0.1413
     12 O          61.3313   85.1733   10.6817 O.3     1  UNL1       -0.4541
     13 C          62.1916   84.8640   11.8709 C.ar    1  UNL1        0.1412
     14 C          62.1599   83.4020   12.2049 C.ar    1  UNL1        0.0372
     15 C          62.9552   82.8802   13.3647 C.ar    1  UNL1        0.0031
     16 C          63.7821   83.8203   14.1906 C.ar    1  UNL1       -0.0001
     17 C          63.8139   85.2824   13.8566 C.ar    1  UNL1       -0.0013
     18 C          63.0186   85.8042   12.6968 C.ar    1  UNL1        0.0121
     19 C          63.5223   88.7475   12.5919 C.3     1  UNL1        0.0204
     20 C          65.8760   92.1411   14.7584 C.3     1  UNL1        0.0684
     21 C          66.0434   91.2346   13.5750 C.3     1  UNL1        0.0790
     22 N          65.0456   90.2818   14.1637 N.3     1  UNL1       -0.2732
     23 C          64.8782   91.1883   15.3471 C.3     1  UNL1        0.0790
     24 O          66.3538   94.6490   14.2767 O.co2   1  UNL1       -0.5491
     25 C          66.4632   93.4558   15.1789 C.2     1  UNL1        0.0527
     26 O          67.1597   93.5771   16.5019 O.co2   1  UNL1       -0.5491
@<TRIPOS>UNITY_ATOM_ATTR
24 1
charge -1
@<TRIPOS>BOND
     1    24    25   ar
     2    25    26   ar
     3    25    20    1
     4    20    21    1
     5    21    22    1
     6    22     1    1
     7     1     2    1
     8     2     3    1
     9     3     4    1
    10     4     5    1
    11     5     6    1
    12     6     7   ar
    13     7     8   ar
    14     8     9   ar
    15     9    10   ar
    16    10    11   ar
    17    11    12    1
    18    12    13    1
    19    13    14   ar
    20    14    15   ar
    21    15    16   ar
    22    16    17   ar
    23    17    18   ar
    24     4    19    1
    25    22    23    1
    26    23    20    1
    27    19     1    1
    28    18     4    1
    29    11     6   ar
    30    18    13   ar
@<TRIPOS>MOLECULE
*****
 26 30 0 0 0
SMALL
GASTEIGER

@<TRIPOS>ATOM
      1 C          62.2491   84.8655   11.6248 C.3     1  UNL1        0.0579
      2 C          61.3819   85.1195   10.4276 C.3     1  UNL1        0.0163
      3 C          61.3586   86.5983   10.1775 C.3     1  UNL1        0.0059
      4 C          62.2113   87.2582   11.2202 C.3     1  UNL1        0.0273
      5 C          63.1042   87.6683   12.3536 C.3     1  UNL1        0.0336
      6 C          63.5480   89.0473   12.7430 C.ar    1  UNL1        0.0127
      7 C          64.4438   89.0155   13.9457 C.ar    1  UNL1       -0.0012
      8 C          65.0001   90.2933   14.5004 C.ar    1  UNL1       -0.0001
      9 C          64.6605   91.6028   13.8525 C.ar    1  UNL1        0.0031
     10 C          63.7646   91.6346   12.6498 C.ar    1  UNL1        0.0372
     11 C          63.2084   90.3568   12.0951 C.ar    1  UNL1        0.1413
     12 O          62.3412   90.6108   10.8978 O.3     1  UNL1       -0.4541
     13 C          61.5994   89.6180   10.0527 C.ar    1  UNL1        0.1412
     14 C          60.8465   90.2947    8.9458 C.ar    1  UNL1        0.0372
     15 C          60.0359   89.4794    7.9824 C.ar    1  UNL1        0.0031
     16 C          59.9781   87.9875    8.1259 C.ar    1  UNL1       -0.0001
     17 C          60.7310   87.3107    9.2328 C.ar    1  UNL1       -0.0013
     18 C          61.5416   88.1260   10.1962 C.ar    1  UNL1        0.0121
     19 C          62.7617   86.1873   12.1147 C.3     1  UNL1        0.0204
     20 C          62.9773   81.6292   13.0775 C.3     1  UNL1        0.0684
     21 C          62.8977   82.1714   11.6811 C.3     1  UNL1        0.0790
     22 N          62.5507   83.5250   12.2265 N.3     1  UNL1       -0.2732
     23 C          62.6304   82.9828   13.6228 C.3     1  UNL1        0.0790
     24 O          64.5188   80.0976   14.5016 O.co2   1  UNL1       -0.5491
     25 C          63.2790   80.2888   13.6793 C.2     1  UNL1        0.0527
     26 O          62.3406   79.1394   13.4587 O.co2   1  UNL1       -0.5491
@<TRIPOS>UNITY_ATOM_ATTR
24 1
charge -1
@<TRIPOS>BOND
     1    24    25   ar
     2    25    26   ar
     3    25    20    1
     4    20    21    1
     5    21    22    1
     6    22     1    1
     7     1     2    1
     8     2     3    1
     9     3     4    1
    10     4     5    1
    11     5     6    1
    12     6     7   ar
    13     7     8   ar
    14     8     9   ar
    15     9    10   ar
    16    10    11   ar
    17    11    12    1
    18    12    13    1
    19    13    14   ar
    20    14    15   ar
    21    15    16   ar
    22    16    17   ar
    23    17    18   ar
    24     4    19    1
    25    22    23    1
    26    23    20    1
    27    19     1    1
    28    18     4    1
    29    11     6   ar
    30    18    13   ar
@<TRIPOS>MOLECULE
*****
 26 30 0 0 0
SMALL
GASTEIGER

@<TRIPOS>ATOM
      1 C          63.2529   90.5191   11.2728 C.3     1  UNL1        0.0579
      2 C          63.6836   90.1922   12.6719 C.3     1  UNL1        0.0163
      3 C          64.6400   91.2561   13.1229 C.3     1  UNL1        0.0059
      4 C          64.8003   92.2405   12.0025 C.3     1  UNL1        0.0273
      5 C          64.7878   93.0665   10.7505 C.3     1  UNL1        0.0336
      6 C          65.5359   94.3334   10.4583 C.ar    1  UNL1        0.0127
      7 C          65.2389   94.8391    9.0778 C.ar    1  UNL1       -0.0012
      8 C          65.8874   96.0987    8.5849 C.ar    1  UNL1       -0.0001
      9 C          66.8327   96.8525    9.4726 C.ar    1  UNL1        0.0031
     10 C          67.1297   96.3468   10.8532 C.ar    1  UNL1        0.0372
     11 C          66.4813   95.0872   11.3460 C.ar    1  UNL1        0.1413
     12 O          66.9120   94.7602   12.7451 O.3     1  UNL1       -0.4541
     13 C          66.5039   93.5988   13.6022 C.ar    1  UNL1        0.1412
     14 C          67.1706   93.6475   14.9449 C.ar    1  UNL1        0.0372
     15 C          66.8976   92.5747   15.9572 C.ar    1  UNL1        0.0031
     16 C          65.9579   91.4534   15.6267 C.ar    1  UNL1       -0.0001
     17 C          65.2910   91.4047   14.2839 C.ar    1  UNL1       -0.0013
     18 C          65.5640   92.4774   13.2717 C.ar    1  UNL1        0.0121
     19 C          63.9430   91.7850   10.8591 C.3     1  UNL1        0.0204
     20 C          60.9508   88.5907    9.2490 C.3     1  UNL1        0.0684
     21 C          62.3291   88.3635    9.7955 C.3     1  UNL1        0.0790
     22 N          62.2993   89.7203   10.4345 N.3     1  UNL1       -0.2732
     23 C          60.9210   89.9474    9.8880 C.3     1  UNL1        0.0790
     24 O          59.1392   88.4789    7.3901 O.co2   1  UNL1       -0.5491
     25 C          59.9972   87.7919    8.4107 C.2     1  UNL1        0.0527
     26 O          59.9017   86.3061    8.5931 O.co2   1  UNL1       -0.5491
@<TRIPOS>UNITY_ATOM_ATTR
24 1
charge -1
@<TRIPOS>BOND
     1    24    25   ar
     2    25    26   ar
     3    25    20    1
     4    20    21    1
     5    21    22    1
     6    22     1    1
     7     1     2    1
     8     2     3    1
     9     3     4    1
    10     4     5    1
    11     5     6    1
    12     6     7   ar
    13     7     8   ar
    14     8     9   ar
    15     9    10   ar
    16    10    11   ar
    17    11    12    1
    18    12    13    1
    19    13    14   ar
    20    14    15   ar
    21    15    16   ar
    22    16    17   ar
    23    17    18   ar
    24     4    19    1
    25    22    23    1
    26    23    20    1
    27    19     1    1
    28    18     4    1
    29    11     6   ar
    30    18    13   ar
