@<TRIPOS>MOLECULE
*****
 30 33 0 0 0
SMALL
GASTEIGER

@<TRIPOS>ATOM
      1 N          62.9687   89.4520   13.6981 N.3     1  UNL1       -0.3162
      2 C          63.1563   90.2162   12.4211 C.3     1  UNL1        0.1166
      3 C          62.9684   90.6504   10.9976 C.3     1  UNL1        0.0739
      4 C          63.7963   91.7697   10.4394 C.3     1  UNL1        0.2039
      5 N          64.8121   92.4550   11.3047 N.pl3   1  UNL1       -0.1931
      6 C          65.0000   92.0209   12.7282 C.3     1  UNL1        0.2039
      7 C          64.1720   90.9015   13.2863 C.3     1  UNL1        0.0739
      8 H          62.2438   88.7463   13.5686 H       1  UNL1        0.1192
      9 H          62.6900   90.0936   14.4405 H       1  UNL1        0.1192
     10 C          65.6400   93.5743   10.7464 C.2     1  UNL1        0.3205
     11 N          65.1193   94.9807   10.7788 N.2     1  UNL1        0.0097
     12 C          65.9471   96.1000   10.2206 C.2     1  UNL1        0.4717
     13 N          67.2958   95.8130    9.6299 N.2     1  UNL1        0.0158
     14 C          67.8166   94.4067    9.5976 C.2     1  UNL1        0.3714
     15 N          69.0989   93.8229    9.0830 N.2     1  UNL1       -0.0339
     16 C          69.0635   92.3427    9.3232 C.2     1  UNL1        0.2323
     17 C          67.7593   92.0117    9.9863 C.2     1  UNL1        0.0486
     18 C          66.9887   93.2874   10.1558 C.3     1  UNL1        0.2428
     19 C          62.0754   89.2656   11.9993 C.2     1  UNL1        0.2353
     20 O          60.6455   89.5521   12.3504 O.2     1  UNL1       -0.2737
     21 N          62.4245   88.0284   11.2264 N.am    1  UNL1       -0.2994
     22 H          63.3630   87.8403   10.9959 H       1  UNL1        0.1498
     23 C          61.3436   87.0777   10.8045 C.3     1  UNL1        0.1164
     24 C          61.4461   86.3608    9.4909 C.ar    1  UNL1       -0.0025
     25 C          62.7301   85.6908    9.1002 C.ar    1  UNL1       -0.0018
     26 C          62.8325   84.9739    7.7866 C.ar    1  UNL1        0.0111
     27 C          61.6510   84.9270    6.8636 C.ar    1  UNL1        0.0577
     28 CL         61.7534   84.2102    5.5500 Cl      1  UNL1       -0.0822
     29 C          60.3671   85.5970    7.2543 C.ar    1  UNL1        0.0111
     30 C          60.2646   86.3139    8.5679 C.ar    1  UNL1       -0.0018
@<TRIPOS>BOND
     1     1     2    1
     2     2    19    1
     3    19    20    2
     4    19    21   am
     5    21    23    1
     6    23    24    1
     7    24    25   ar
     8    25    26   ar
     9    26    27   ar
    10    27    28    1
    11    27    29   ar
    12    29    30   ar
    13     2     3    1
    14     3     4    1
    15     4     5    1
    16     5    10    1
    17    10    11    2
    18    11    12    1
    19    12    13    2
    20    13    14    1
    21    14    15    2
    22    15    16    1
    23    16    17    2
    24    17    18    1
    25     5     6    1
    26     6     7    1
    27     7     2    1
    28    30    24   ar
    29    18    10    1
    30    18    14    1
    31     1     8    1
    32     1     9    1
    33    21    22    1
@<TRIPOS>MOLECULE
*****
 30 33 0 0 0
SMALL
GASTEIGER

@<TRIPOS>ATOM
      1 N          62.4315   90.1796   13.5351 N.3     1  UNL1       -0.3162
      2 C          63.0220   90.5456   12.2057 C.3     1  UNL1        0.1166
      3 C          63.2266   90.5982   10.7206 C.3     1  UNL1        0.0739
      4 C          64.3374   91.4259   10.1454 C.3     1  UNL1        0.2039
      5 N          65.2438   92.2010   11.0553 N.pl3   1  UNL1       -0.1931
      6 C          65.0393   92.1484   12.5404 C.3     1  UNL1        0.2039
      7 C          63.9283   91.3207   13.1155 C.3     1  UNL1        0.0739
      8 H          61.6409   89.5507   13.3944 H       1  UNL1        0.1192
      9 H          62.1136   91.0245   14.0100 H       1  UNL1        0.1192
     10 C          66.3547   93.0287   10.4801 C.2     1  UNL1        0.3205
     11 N          67.5926   92.3627    9.9566 N.2     1  UNL1        0.0097
     12 C          68.7034   93.1904    9.3814 C.2     1  UNL1        0.4717
     13 N          68.5764   94.6841    9.3296 N.2     1  UNL1        0.0158
     14 C          67.3385   95.3501    9.8531 C.2     1  UNL1        0.3714
     15 N          66.9324   96.7918    9.9344 N.2     1  UNL1       -0.0339
     16 C          65.5705   96.8551   10.5599 C.2     1  UNL1        0.2323
     17 C          65.1349   95.4526   10.8652 C.2     1  UNL1        0.0486
     18 C          66.2277   94.5224   10.4284 C.3     1  UNL1        0.2428
     19 C          61.9107   89.6434   11.7575 C.2     1  UNL1        0.2353
     20 O          60.5132   90.1758   11.6409 O.2     1  UNL1       -0.2737
     21 N          62.1969   88.2088   11.4259 N.am    1  UNL1       -0.2994
     22 H          63.1141   87.8594   11.5024 H       1  UNL1        0.1498
     23 C          61.0855   87.3065   10.9776 C.3     1  UNL1        0.1164
     24 C          61.2012   86.5613    9.6809 C.ar    1  UNL1       -0.0025
     25 C          62.4815   85.8637    9.3285 C.ar    1  UNL1       -0.0018
     26 C          62.5971   85.1185    8.0318 C.ar    1  UNL1        0.0111
     27 C          61.4326   85.0709    7.0876 C.ar    1  UNL1        0.0577
     28 CL         61.5482   84.3258    5.7910 Cl      1  UNL1       -0.0822
     29 C          60.1524   85.7686    7.4401 C.ar    1  UNL1        0.0111
     30 C          60.0366   86.5138    8.7367 C.ar    1  UNL1       -0.0018
@<TRIPOS>BOND
     1     1     2    1
     2     2    19    1
     3    19    20    2
     4    19    21   am
     5    21    23    1
     6    23    24    1
     7    24    25   ar
     8    25    26   ar
     9    26    27   ar
    10    27    28    1
    11    27    29   ar
    12    29    30   ar
    13     2     3    1
    14     3     4    1
    15     4     5    1
    16     5    10    1
    17    10    11    2
    18    11    12    1
    19    12    13    2
    20    13    14    1
    21    14    15    2
    22    15    16    1
    23    16    17    2
    24    17    18    1
    25     5     6    1
    26     6     7    1
    27     7     2    1
    28    30    24   ar
    29    18    10    1
    30    18    14    1
    31     1     8    1
    32     1     9    1
    33    21    22    1
@<TRIPOS>MOLECULE
*****
 30 33 0 0 0
SMALL
GASTEIGER

@<TRIPOS>ATOM
      1 N          64.3622   89.3467   13.8788 N.3     1  UNL1       -0.3162
      2 C          63.6519   89.7159   12.6103 C.3     1  UNL1        0.1166
      3 C          63.1425   90.5480   11.4708 C.3     1  UNL1        0.0739
      4 C          62.3011   89.9190   10.4003 C.3     1  UNL1        0.2039
      5 N          61.9689   88.4578   10.4691 N.pl3   1  UNL1       -0.1931
      6 C          62.4781   87.6257   11.6085 C.3     1  UNL1        0.2039
      7 C          63.3197   88.2548   12.6791 C.3     1  UNL1        0.0739
      8 H          64.8198   90.1725   14.2649 H       1  UNL1        0.1192
      9 H          65.0620   88.6316   13.6808 H       1  UNL1        0.1192
     10 C          61.1274   87.8288    9.3985 C.2     1  UNL1        0.3205
     11 N          59.7703   88.3865    9.0866 N.2     1  UNL1        0.0097
     12 C          58.9288   87.7576    8.0161 C.2     1  UNL1        0.4717
     13 N          59.4443   86.5707    7.2572 N.2     1  UNL1        0.0158
     14 C          60.8014   86.0130    7.5690 C.2     1  UNL1        0.3714
     15 N          61.5696   84.8607    6.9927 N.2     1  UNL1       -0.0339
     16 C          62.8859   84.7776    7.7072 C.2     1  UNL1        0.2323
     17 C          62.9312   85.8785    8.7251 C.2     1  UNL1        0.0486
     18 C          61.6429   86.6420    8.6397 C.3     1  UNL1        0.2428
     19 C          64.2307   91.0488   12.9820 C.2     1  UNL1        0.2353
     20 O          63.9503   91.6381   14.3326 O.2     1  UNL1       -0.2737
     21 N          65.0900   91.7925   12.0029 N.am    1  UNL1       -0.2994
     22 H          65.2741   91.4058   11.1165 H       1  UNL1        0.1498
     23 C          65.6690   93.1255   12.3746 C.3     1  UNL1        0.1164
     24 C          66.1651   94.0523   11.3045 C.ar    1  UNL1       -0.0025
     25 C          66.0629   95.5370   11.4916 C.ar    1  UNL1       -0.0018
     26 C          66.5591   96.4637   10.4216 C.ar    1  UNL1        0.0111
     27 C          67.1575   95.9058    9.1644 C.ar    1  UNL1        0.0577
     28 CL         67.6537   96.8324    8.0944 Cl      1  UNL1       -0.0822
     29 C          67.2598   94.4210    8.9773 C.ar    1  UNL1        0.0111
     30 C          66.7636   93.4942   10.0473 C.ar    1  UNL1       -0.0018
@<TRIPOS>BOND
     1     1     2    1
     2     2    19    1
     3    19    20    2
     4    19    21   am
     5    21    23    1
     6    23    24    1
     7    24    25   ar
     8    25    26   ar
     9    26    27   ar
    10    27    28    1
    11    27    29   ar
    12    29    30   ar
    13     2     3    1
    14     3     4    1
    15     4     5    1
    16     5    10    1
    17    10    11    2
    18    11    12    1
    19    12    13    2
    20    13    14    1
    21    14    15    2
    22    15    16    1
    23    16    17    2
    24    17    18    1
    25     5     6    1
    26     6     7    1
    27     7     2    1
    28    30    24   ar
    29    18    10    1
    30    18    14    1
    31     1     8    1
    32     1     9    1
    33    21    22    1
@<TRIPOS>MOLECULE
*****
 30 33 0 0 0
SMALL
GASTEIGER

@<TRIPOS>ATOM
      1 N          62.5777   90.9236    9.4305 N.3     1  UNL1       -0.3162
      2 C          62.9507   90.5072   10.8224 C.3     1  UNL1        0.1166
      3 C          62.9967   89.7051   12.0892 C.3     1  UNL1        0.0739
      4 C          63.8549   90.1580   13.2329 C.3     1  UNL1        0.2039
      5 N          64.6671   91.4132   13.1100 N.pl3   1  UNL1       -0.1931
      6 C          64.6212   92.2153   11.8433 C.3     1  UNL1        0.2039
      7 C          63.7629   91.7622   10.6995 C.3     1  UNL1        0.0739
      8 H          61.9222   90.2480    9.0377 H       1  UNL1        0.1192
      9 H          63.4159   90.9608    8.8506 H       1  UNL1        0.1192
     10 C          65.5253   91.8661   14.2538 C.2     1  UNL1        0.3205
     11 N          64.9010   92.1829   15.5804 N.2     1  UNL1        0.0097
     12 C          65.7591   92.6358   16.7242 C.2     1  UNL1        0.4717
     13 N          67.2417   92.7721   16.5415 N.2     1  UNL1        0.0158
     14 C          67.8661   92.4553   15.2149 C.2     1  UNL1        0.3714
     15 N          69.2882   92.4962   14.7396 N.2     1  UNL1       -0.0339
     16 C          69.3089   92.0685   13.3021 C.2     1  UNL1        0.2323
     17 C          67.8996   91.7633   12.8889 C.2     1  UNL1        0.0486
     18 C          67.0079   92.0024   14.0711 C.3     1  UNL1        0.2428
     19 C          62.0089   89.3967   10.4620 C.2     1  UNL1        0.2353
     20 O          60.8850   89.6486    9.5010 O.2     1  UNL1       -0.2737
     21 N          62.1912   88.0343   11.0625 N.am    1  UNL1       -0.2994
     22 H          62.9288   87.8690   11.6932 H       1  UNL1        0.1498
     23 C          61.2494   86.9237   10.7021 C.3     1  UNL1        0.1164
     24 C          61.3789   86.2306    9.3782 C.ar    1  UNL1       -0.0025
     25 C          60.2073   86.1747    8.4432 C.ar    1  UNL1       -0.0018
     26 C          60.3368   85.4815    7.1192 C.ar    1  UNL1        0.0111
     27 C          61.6378   84.8444    6.7303 C.ar    1  UNL1        0.0577
     28 CL         61.7674   84.1513    5.4064 Cl      1  UNL1       -0.0822
     29 C          62.8094   84.9003    7.6653 C.ar    1  UNL1        0.0111
     30 C          62.6799   85.5934    8.9893 C.ar    1  UNL1       -0.0018
@<TRIPOS>BOND
     1     1     2    1
     2     2    19    1
     3    19    20    2
     4    19    21   am
     5    21    23    1
     6    23    24    1
     7    24    25   ar
     8    25    26   ar
     9    26    27   ar
    10    27    28    1
    11    27    29   ar
    12    29    30   ar
    13     2     3    1
    14     3     4    1
    15     4     5    1
    16     5    10    1
    17    10    11    2
    18    11    12    1
    19    12    13    2
    20    13    14    1
    21    14    15    2
    22    15    16    1
    23    16    17    2
    24    17    18    1
    25     5     6    1
    26     6     7    1
    27     7     2    1
    28    30    24   ar
    29    18    10    1
    30    18    14    1
    31     1     8    1
    32     1     9    1
    33    21    22    1
@<TRIPOS>MOLECULE
*****
 30 33 0 0 0
SMALL
GASTEIGER

@<TRIPOS>ATOM
      1 N          63.2085   90.2329   17.2069 N.3     1  UNL1       -0.3162
      2 C          63.6581   89.4108   16.0357 C.3     1  UNL1        0.1166
      3 C          64.2644   89.0606   14.7091 C.3     1  UNL1        0.0739
      4 C          64.2634   87.6371   14.2364 C.3     1  UNL1        0.2039
      5 N          63.6559   86.5637   15.0902 N.pl3   1  UNL1       -0.1931
      6 C          63.0496   86.9138   16.4168 C.3     1  UNL1        0.2039
      7 C          63.0507   88.3374   16.8895 C.3     1  UNL1        0.0739
      8 H          63.4512   91.2109   17.0490 H       1  UNL1        0.1192
      9 H          63.6706   89.9003   18.0532 H       1  UNL1        0.1192
     10 C          63.6549   85.1401   14.6174 C.2     1  UNL1        0.3205
     11 N          64.0705   84.0402   15.5488 N.2     1  UNL1        0.0097
     12 C          64.0694   82.6167   15.0761 C.2     1  UNL1        0.4717
     13 N          63.6528   82.2930   13.6719 N.2     1  UNL1        0.0158
     14 C          63.2372   83.3929   12.7405 C.2     1  UNL1        0.3714
     15 N          62.7799   83.3792   11.3120 N.2     1  UNL1       -0.0339
     16 C          62.4983   84.7943   10.9019 C.2     1  UNL1        0.2323
     17 C          62.7816   85.6826   12.0769 C.2     1  UNL1        0.0486
     18 C          63.2382   84.8165   13.2133 C.3     1  UNL1        0.2428
     19 C          64.1094   90.7697   15.5886 C.2     1  UNL1        0.2353
     20 O          63.5286   91.9990   16.2222 O.2     1  UNL1       -0.2737
     21 N          65.1415   90.8991   14.5079 N.am    1  UNL1       -0.2994
     22 H          65.5227   90.0922   14.0920 H       1  UNL1        0.1498
     23 C          65.5928   92.2579   14.0607 C.3     1  UNL1        0.1164
     24 C          66.2599   92.4256   12.7277 C.ar    1  UNL1       -0.0025
     25 C          65.5561   93.1572   11.6235 C.ar    1  UNL1       -0.0018
     26 C          66.2233   93.3248   10.2905 C.ar    1  UNL1        0.0111
     27 C          67.5943   92.7609   10.0618 C.ar    1  UNL1        0.0577
     28 CL         68.2614   92.9285    8.7289 Cl      1  UNL1       -0.0822
     29 C          68.2981   92.0293   11.1660 C.ar    1  UNL1        0.0111
     30 C          67.6310   91.8616   12.4990 C.ar    1  UNL1       -0.0018
@<TRIPOS>BOND
     1     1     2    1
     2     2    19    1
     3    19    20    2
     4    19    21   am
     5    21    23    1
     6    23    24    1
     7    24    25   ar
     8    25    26   ar
     9    26    27   ar
    10    27    28    1
    11    27    29   ar
    12    29    30   ar
    13     2     3    1
    14     3     4    1
    15     4     5    1
    16     5    10    1
    17    10    11    2
    18    11    12    1
    19    12    13    2
    20    13    14    1
    21    14    15    2
    22    15    16    1
    23    16    17    2
    24    17    18    1
    25     5     6    1
    26     6     7    1
    27     7     2    1
    28    30    24   ar
    29    18    10    1
    30    18    14    1
    31     1     8    1
    32     1     9    1
    33    21    22    1
@<TRIPOS>MOLECULE
*****
 30 33 0 0 0
SMALL
GASTEIGER

@<TRIPOS>ATOM
      1 N          62.7765   90.5345   11.0562 N.3     1  UNL1       -0.3162
      2 C          63.2538   89.5491   12.0814 C.3     1  UNL1        0.1166
      3 C          63.9546   88.9979   13.2878 C.3     1  UNL1        0.0739
      4 C          63.8460   87.5385   13.6167 C.3     1  UNL1        0.2039
      5 N          63.0366   86.6301   12.7392 N.pl3   1  UNL1       -0.1931
      6 C          62.3358   87.1812   11.5329 C.3     1  UNL1        0.2039
      7 C          62.4444   88.6407   11.2041 C.3     1  UNL1        0.0739
      8 H          63.1413   91.4606   11.2791 H       1  UNL1        0.1192
      9 H          61.7569   90.5609   11.0589 H       1  UNL1        0.1192
     10 C          62.9280   85.1706   13.0681 C.2     1  UNL1        0.3205
     11 N          62.4692   84.7409   14.4300 N.2     1  UNL1        0.0097
     12 C          62.3606   83.2815   14.7590 C.2     1  UNL1        0.4717
     13 N          62.7109   82.2517   13.7260 N.2     1  UNL1        0.0158
     14 C          63.1698   82.6815   12.3641 C.2     1  UNL1        0.3714
     15 N          63.5805   81.9010   11.1508 N.2     1  UNL1       -0.0339
     16 C          63.9429   82.8782   10.0720 C.2     1  UNL1        0.2323
     17 C          63.7562   84.2625   10.6185 C.2     1  UNL1        0.0486
     18 C          63.2783   84.1409   12.0352 C.3     1  UNL1        0.2428
     19 C          63.8974   90.7996   12.6028 C.2     1  UNL1        0.2353
     20 O          63.6494   91.2378   14.0158 O.2     1  UNL1       -0.2737
     21 N          64.7891   91.6119   11.7112 N.am    1  UNL1       -0.2994
     22 H          64.9518   91.3243   10.7838 H       1  UNL1        0.1498
     23 C          65.4328   92.8625   12.2325 C.3     1  UNL1        0.1164
     24 C          66.0153   93.8608   11.2764 C.ar    1  UNL1       -0.0025
     25 C          65.9905   95.3228   11.6111 C.ar    1  UNL1       -0.0018
     26 C          66.5730   96.3210   10.6549 C.ar    1  UNL1        0.0111
     27 C          67.1803   95.8574    9.3642 C.ar    1  UNL1        0.0577
     28 CL         67.7628   96.8555    8.4081 Cl      1  UNL1       -0.0822
     29 C          67.2051   94.3954    9.0295 C.ar    1  UNL1        0.0111
     30 C          66.6226   93.3971    9.9856 C.ar    1  UNL1       -0.0018
@<TRIPOS>BOND
     1     1     2    1
     2     2    19    1
     3    19    20    2
     4    19    21   am
     5    21    23    1
     6    23    24    1
     7    24    25   ar
     8    25    26   ar
     9    26    27   ar
    10    27    28    1
    11    27    29   ar
    12    29    30   ar
    13     2     3    1
    14     3     4    1
    15     4     5    1
    16     5    10    1
    17    10    11    2
    18    11    12    1
    19    12    13    2
    20    13    14    1
    21    14    15    2
    22    15    16    1
    23    16    17    2
    24    17    18    1
    25     5     6    1
    26     6     7    1
    27     7     2    1
    28    30    24   ar
    29    18    10    1
    30    18    14    1
    31     1     8    1
    32     1     9    1
    33    21    22    1
@<TRIPOS>MOLECULE
*****
 30 33 0 0 0
SMALL
GASTEIGER

@<TRIPOS>ATOM
      1 N          60.7045   89.1223    9.5861 N.3     1  UNL1       -0.3162
      2 C          61.6303   88.3862   10.5085 C.3     1  UNL1        0.1166
      3 C          62.6808   88.1412   11.5508 C.3     1  UNL1        0.0739
      4 C          63.0507   86.7373   11.9275 C.3     1  UNL1        0.2039
      5 N          62.3700   85.5780   11.2618 N.pl3   1  UNL1       -0.1931
      6 C          61.3195   85.8229   10.2195 C.3     1  UNL1        0.2039
      7 C          60.9496   87.2270    9.8429 C.3     1  UNL1        0.0739
      8 H          60.8330   90.1271    9.7061 H       1  UNL1        0.1192
      9 H          59.7393   88.8746    9.8042 H       1  UNL1        0.1192
     10 C          62.7400   84.1740   11.6385 C.2     1  UNL1        0.3205
     11 N          63.0987   83.1813   10.5727 N.2     1  UNL1        0.0097
     12 C          63.4686   81.7774   10.9494 C.2     1  UNL1        0.4717
     13 N          63.4798   81.3660   12.3919 N.2     1  UNL1        0.0158
     14 C          63.1210   82.3586   13.4576 C.2     1  UNL1        0.3714
     15 N          63.0445   82.2439   14.9513 N.2     1  UNL1       -0.0339
     16 C          62.6272   83.5771   15.4977 C.2     1  UNL1        0.2323
     17 C          62.4459   84.5157   14.3418 C.2     1  UNL1        0.0486
     18 C          62.7511   83.7627   13.0809 C.3     1  UNL1        0.2428
     19 C          61.9894   89.8010   10.8538 C.2     1  UNL1        0.2353
     20 O          60.9111   90.7875   11.1915 O.2     1  UNL1       -0.2737
     21 N          63.4270   90.2292   10.8615 N.am    1  UNL1       -0.2994
     22 H          64.1347   89.5817   10.6399 H       1  UNL1        0.1498
     23 C          63.7862   91.6440   11.2069 C.3     1  UNL1        0.1164
     24 C          64.6401   91.9295   12.4067 C.ar    1  UNL1       -0.0025
     25 C          65.6193   93.0654   12.3773 C.ar    1  UNL1       -0.0018
     26 C          66.4731   93.3507   13.5771 C.ar    1  UNL1        0.0111
     27 C          66.3477   92.5003   14.8063 C.ar    1  UNL1        0.0577
     28 CL         67.2014   92.7857   16.0061 Cl      1  UNL1       -0.0822
     29 C          65.3684   91.3645   14.8357 C.ar    1  UNL1        0.0111
     30 C          64.5146   91.0790   13.6359 C.ar    1  UNL1       -0.0018
@<TRIPOS>BOND
     1     1     2    1
     2     2    19    1
     3    19    20    2
     4    19    21   am
     5    21    23    1
     6    23    24    1
     7    24    25   ar
     8    25    26   ar
     9    26    27   ar
    10    27    28    1
    11    27    29   ar
    12    29    30   ar
    13     2     3    1
    14     3     4    1
    15     4     5    1
    16     5    10    1
    17    10    11    2
    18    11    12    1
    19    12    13    2
    20    13    14    1
    21    14    15    2
    22    15    16    1
    23    16    17    2
    24    17    18    1
    25     5     6    1
    26     6     7    1
    27     7     2    1
    28    30    24   ar
    29    18    10    1
    30    18    14    1
    31     1     8    1
    32     1     9    1
    33    21    22    1
@<TRIPOS>MOLECULE
*****
 30 33 0 0 0
SMALL
GASTEIGER

@<TRIPOS>ATOM
      1 N          61.7404   89.5454   10.0700 N.3     1  UNL1       -0.3162
      2 C          62.4521   88.8131   11.1686 C.3     1  UNL1        0.1166
      3 C          63.3734   88.5544   12.3239 C.3     1  UNL1        0.0739
      4 C          63.4443   87.1864   12.9347 C.3     1  UNL1        0.2039
      5 N          62.5941   86.0768   12.3904 N.pl3   1  UNL1       -0.1931
      6 C          61.6729   86.3355   11.2352 C.3     1  UNL1        0.2039
      7 C          61.6019   87.7037   10.6244 C.3     1  UNL1        0.0739
      8 H          62.0521   90.5164   10.0511 H       1  UNL1        0.1192
      9 H          60.7346   89.5144   10.2367 H       1  UNL1        0.1192
     10 C          62.6651   84.7087   13.0013 C.2     1  UNL1        0.3205
     11 N          62.3164   84.5140   14.4472 N.2     1  UNL1        0.0097
     12 C          62.3874   83.1459   15.0581 C.2     1  UNL1        0.4717
     13 N          62.8071   81.9725   14.2232 N.2     1  UNL1        0.0158
     14 C          63.1558   82.1673   12.7773 C.2     1  UNL1        0.3714
     15 N          63.5996   81.2071   11.7138 N.2     1  UNL1       -0.0339
     16 C          63.8029   81.9818   10.4456 C.2     1  UNL1        0.2323
     17 C          63.4847   83.4208   10.7253 C.2     1  UNL1        0.0486
     18 C          63.0848   83.5354   12.1664 C.3     1  UNL1        0.2428
     19 C          63.0552   90.1769   11.3314 C.2     1  UNL1        0.2353
     20 O          62.8293   91.2268   10.2842 O.2     1  UNL1       -0.2737
     21 N          63.8842   90.4906   12.5415 N.am    1  UNL1       -0.2994
     22 H          64.0325   89.8015   13.2288 H       1  UNL1        0.1498
     23 C          64.4873   91.8544   12.7044 C.3     1  UNL1        0.1164
     24 C          65.6688   92.0489   13.6079 C.ar    1  UNL1       -0.0025
     25 C          67.0590   91.9935   13.0471 C.ar    1  UNL1       -0.0018
     26 C          68.2404   92.1881   13.9507 C.ar    1  UNL1        0.0111
     27 C          68.0318   92.4379   15.4149 C.ar    1  UNL1        0.0577
     28 CL         69.2132   92.6324   16.3184 Cl      1  UNL1       -0.0822
     29 C          66.6417   92.4932   15.9756 C.ar    1  UNL1        0.0111
     30 C          65.4602   92.2987   15.0721 C.ar    1  UNL1       -0.0018
@<TRIPOS>BOND
     1     1     2    1
     2     2    19    1
     3    19    20    2
     4    19    21   am
     5    21    23    1
     6    23    24    1
     7    24    25   ar
     8    25    26   ar
     9    26    27   ar
    10    27    28    1
    11    27    29   ar
    12    29    30   ar
    13     2     3    1
    14     3     4    1
    15     4     5    1
    16     5    10    1
    17    10    11    2
    18    11    12    1
    19    12    13    2
    20    13    14    1
    21    14    15    2
    22    15    16    1
    23    16    17    2
    24    17    18    1
    25     5     6    1
    26     6     7    1
    27     7     2    1
    28    30    24   ar
    29    18    10    1
    30    18    14    1
    31     1     8    1
    32     1     9    1
    33    21    22    1
@<TRIPOS>MOLECULE
*****
 30 33 0 0 0
SMALL
GASTEIGER

@<TRIPOS>ATOM
      1 N          61.1492   85.8942    7.1084 N.3     1  UNL1       -0.3162
      2 C          61.0125   86.2244    8.5651 C.3     1  UNL1        0.1166
      3 C          60.4805   86.8335    9.8285 C.3     1  UNL1        0.0739
      4 C          61.1339   86.5249   11.1429 C.3     1  UNL1        0.2039
      5 N          62.3192   85.6069   11.1941 N.pl3   1  UNL1       -0.1931
      6 C          62.8512   84.9978    9.9308 C.3     1  UNL1        0.2039
      7 C          62.1977   85.3065    8.6163 C.3     1  UNL1        0.0739
      8 H          60.4241   86.3795    6.5802 H       1  UNL1        0.1192
      9 H          61.0494   84.8876    6.9771 H       1  UNL1        0.1192
     10 C          62.9726   85.2982   12.5085 C.2     1  UNL1        0.3205
     11 N          63.5626   86.4052   13.3311 N.2     1  UNL1        0.0097
     12 C          64.2159   86.0965   14.6455 C.2     1  UNL1        0.4717
     13 N          64.2793   84.6809   15.1375 N.2     1  UNL1        0.0158
     14 C          63.6892   83.5740   14.3150 C.2     1  UNL1        0.3714
     15 N          63.6019   82.0935   14.5397 N.2     1  UNL1       -0.0339
     16 C          62.8946   81.4872   13.3641 C.2     1  UNL1        0.2323
     17 C          62.5448   82.5929   12.4128 C.2     1  UNL1        0.0486
     18 C          63.0359   83.8826   13.0005 C.3     1  UNL1        0.2428
     19 C          59.8747   87.0276    8.0081 C.2     1  UNL1        0.2353
     20 O          58.5231   86.3985    7.8420 O.2     1  UNL1       -0.2737
     21 N          60.0885   88.4599    7.6172 N.am    1  UNL1       -0.2994
     22 H          60.9756   88.8727    7.7263 H       1  UNL1        0.1498
     23 C          58.9507   89.2632    7.0602 C.3     1  UNL1        0.1164
     24 C          59.2040   90.2744    5.9816 C.ar    1  UNL1       -0.0025
     25 C          60.6006   90.5111    5.4884 C.ar    1  UNL1       -0.0018
     26 C          60.8538   91.5223    4.4098 C.ar    1  UNL1        0.0111
     27 C          59.7103   92.2968    3.8244 C.ar    1  UNL1        0.0577
     28 CL         59.9635   93.3079    2.7458 Cl      1  UNL1       -0.0822
     29 C          58.3137   92.0600    4.3176 C.ar    1  UNL1        0.0111
     30 C          58.0605   91.0488    5.3962 C.ar    1  UNL1       -0.0018
@<TRIPOS>BOND
     1     1     2    1
     2     2    19    1
     3    19    20    2
     4    19    21   am
     5    21    23    1
     6    23    24    1
     7    24    25   ar
     8    25    26   ar
     9    26    27   ar
    10    27    28    1
    11    27    29   ar
    12    29    30   ar
    13     2     3    1
    14     3     4    1
    15     4     5    1
    16     5    10    1
    17    10    11    2
    18    11    12    1
    19    12    13    2
    20    13    14    1
    21    14    15    2
    22    15    16    1
    23    16    17    2
    24    17    18    1
    25     5     6    1
    26     6     7    1
    27     7     2    1
    28    30    24   ar
    29    18    10    1
    30    18    14    1
    31     1     8    1
    32     1     9    1
    33    21    22    1
