@<TRIPOS>MOLECULE
*****
 27 30 0 0 0
SMALL
GASTEIGER

@<TRIPOS>ATOM
      1 N          63.4770   85.9864   12.8088 N.am    1  UNL1       -0.2788
      2 C          62.5144   86.9534   12.1857 C.2     1  UNL1        0.2571
      3 O          61.1969   86.4662   11.6595 O.2     1  UNL1       -0.2692
      4 H          64.3417   86.3062   13.1542 H       1  UNL1        0.1552
      5 C          63.0404   81.3038   10.5991 C.3     1  UNL1        0.0311
      6 C          62.9038   82.1909   11.8009 C.ar    1  UNL1       -0.0205
      7 C          62.4123   81.6239   13.0997 C.ar    1  UNL1       -0.0027
      8 C          62.2757   82.5110   14.3015 C.ar    1  UNL1        0.0185
      9 C          62.6306   83.9651   14.2046 C.ar    1  UNL1        0.0789
     10 C          63.1221   84.5322   12.9058 C.ar    1  UNL1        0.0666
     11 C          63.2586   83.6451   11.7040 C.ar    1  UNL1        0.0119
     12 N          62.4940   84.8522   15.4064 N.ar    1  UNL1       -0.2852
     13 C          63.6215   85.4056   16.2266 C.ar    1  UNL1        0.1023
     14 C          63.0303   86.2371   17.3262 C.ar    1  UNL1        0.1196
     15 N          61.5374   86.1977   17.1856 N.ar    1  UNL1       -0.2220
     16 C          61.2060   85.3418   15.9991 C.ar    1  UNL1        0.1829
     17 C          62.8693   88.4076   12.0886 C.ar    1  UNL1        0.1035
     18 C          62.2471   89.4068   11.1589 C.ar    1  UNL1        0.1105
     19 N          62.9019   90.7347   11.3999 N.ar    1  UNL1       -0.2366
     20 C          63.9288   90.5561   12.4787 C.ar    1  UNL1        0.1109
     21 S          63.9086   89.1179   12.9043 S.2     1  UNL1       -0.0619
     22 C          64.8194   91.6275   13.0343 C.ar    1  UNL1        0.0238
     23 C          65.2098   91.6022   14.4824 C.ar    1  UNL1        0.0020
     24 C          66.1004   92.6736   15.0380 C.ar    1  UNL1        0.0001
     25 C          66.6008   93.7704   14.1455 C.ar    1  UNL1        0.0000
     26 C          66.2105   93.7958   12.6973 C.ar    1  UNL1        0.0001
     27 C          65.3198   92.7243   12.1418 C.ar    1  UNL1        0.0020
@<TRIPOS>BOND
     1     5     6    1
     2     6     7   ar
     3     7     8   ar
     4     8     9   ar
     5     9    12    1
     6    12    13   ar
     7    13    14   ar
     8    14    15   ar
     9    15    16   ar
    10     9    10   ar
    11    10     1    1
    12     1     2   am
    13     2     3    2
    14     2    17    1
    15    17    18   ar
    16    18    19   ar
    17    19    20   ar
    18    20    22    1
    19    22    23   ar
    20    23    24   ar
    21    24    25   ar
    22    25    26   ar
    23    26    27   ar
    24    20    21   ar
    25    10    11   ar
    26    11     6   ar
    27    16    12   ar
    28    21    17   ar
    29    27    22   ar
    30     1     4    1
@<TRIPOS>MOLECULE
*****
 27 30 0 0 0
SMALL
GASTEIGER

@<TRIPOS>ATOM
      1 N          62.4353   88.6370   10.9261 N.am    1  UNL1       -0.2788
      2 C          61.8547   89.3564   12.1073 C.2     1  UNL1        0.2571
      3 O          60.3725   89.5656   12.2038 O.2     1  UNL1       -0.2692
      4 H          63.4081   88.4997   10.8627 H       1  UNL1        0.1552
      5 C          59.1301   89.5494    7.0218 C.3     1  UNL1        0.0311
      6 C          59.8811   88.5830    7.8891 C.ar    1  UNL1       -0.0205
      7 C          59.7304   87.1066    7.6717 C.ar    1  UNL1       -0.0027
      8 C          60.4814   86.1402    8.5390 C.ar    1  UNL1        0.0185
      9 C          61.3830   86.6504    9.6238 C.ar    1  UNL1        0.0789
     10 C          61.5336   88.1268    9.8412 C.ar    1  UNL1        0.0666
     11 C          60.7827   89.0931    8.9739 C.ar    1  UNL1        0.0119
     12 N          62.1339   85.6840   10.4911 N.ar    1  UNL1       -0.2852
     13 C          62.0278   85.5722   11.9832 C.ar    1  UNL1        0.1023
     14 C          62.9512   84.4789   12.4329 C.ar    1  UNL1        0.1196
     15 N          63.6279   83.9151   11.2188 N.ar    1  UNL1       -0.2220
     16 C          63.1228   84.6599   10.0187 C.ar    1  UNL1        0.1829
     17 C          62.7564   89.8666   13.1921 C.ar    1  UNL1        0.1035
     18 C          62.5124   89.7522   14.6677 C.ar    1  UNL1        0.1105
     19 N          63.6655   90.3957   15.3794 N.ar    1  UNL1       -0.2366
     20 C          64.6221   90.9077   14.3436 C.ar    1  UNL1        0.1109
     21 S          64.0602   90.5807   12.9918 S.2     1  UNL1       -0.0619
     22 C          65.9137   91.6213   14.6124 C.ar    1  UNL1        0.0238
     23 C          66.0980   92.3824   15.8918 C.ar    1  UNL1        0.0020
     24 C          67.3896   93.0960   16.1606 C.ar    1  UNL1        0.0001
     25 C          68.4970   93.0487   15.1500 C.ar    1  UNL1        0.0000
     26 C          68.3128   92.2877   13.8705 C.ar    1  UNL1        0.0001
     27 C          67.0211   91.5740   13.6018 C.ar    1  UNL1        0.0020
@<TRIPOS>BOND
     1     5     6    1
     2     6     7   ar
     3     7     8   ar
     4     8     9   ar
     5     9    12    1
     6    12    13   ar
     7    13    14   ar
     8    14    15   ar
     9    15    16   ar
    10     9    10   ar
    11    10     1    1
    12     1     2   am
    13     2     3    2
    14     2    17    1
    15    17    18   ar
    16    18    19   ar
    17    19    20   ar
    18    20    22    1
    19    22    23   ar
    20    23    24   ar
    21    24    25   ar
    22    25    26   ar
    23    26    27   ar
    24    20    21   ar
    25    10    11   ar
    26    11     6   ar
    27    16    12   ar
    28    21    17   ar
    29    27    22   ar
    30     1     4    1
@<TRIPOS>MOLECULE
*****
 27 30 0 0 0
SMALL
GASTEIGER

@<TRIPOS>ATOM
      1 N          65.3462   89.7432   14.3679 N.am    1  UNL1       -0.2788
      2 C          64.2598   89.4208   15.3506 C.2     1  UNL1        0.2571
      3 O          63.6254   90.5173   16.1538 O.2     1  UNL1       -0.2692
      4 H          65.7626   89.0235   13.8408 H       1  UNL1        0.1552
      5 C          68.2967   93.7499   15.8650 C.3     1  UNL1        0.0311
      6 C          67.2734   93.1655   14.9368 C.ar    1  UNL1       -0.0205
      7 C          66.7021   94.0001   13.8292 C.ar    1  UNL1       -0.0027
      8 C          65.6788   93.4158   12.9011 C.ar    1  UNL1        0.0185
      9 C          65.2268   91.9968   13.0806 C.ar    1  UNL1        0.0789
     10 C          65.7982   91.1622   14.1883 C.ar    1  UNL1        0.0666
     11 C          66.8215   91.7466   15.1164 C.ar    1  UNL1        0.0119
     12 N          64.2035   91.4125   12.1525 N.ar    1  UNL1       -0.2852
     13 C          63.0692   90.5128   12.5447 C.ar    1  UNL1        0.1023
     14 C          62.2995   90.1695   11.3038 C.ar    1  UNL1        0.1196
     15 N          62.9581   90.8570   10.1447 N.ar    1  UNL1       -0.2220
     16 C          64.1349   91.6252   10.6693 C.ar    1  UNL1        0.1829
     17 C          63.8079   88.0018   15.5302 C.ar    1  UNL1        0.1035
     18 C          63.0797   87.4525   16.7211 C.ar    1  UNL1        0.1105
     19 N          62.8265   85.9942   16.4774 N.ar    1  UNL1       -0.2366
     20 C          63.3982   85.6423   15.1359 C.ar    1  UNL1        0.1109
     21 S          64.0047   86.8831   14.5506 S.2     1  UNL1       -0.0619
     22 C          63.3686   84.2876   14.4928 C.ar    1  UNL1        0.0238
     23 C          62.3713   83.2633   14.9470 C.ar    1  UNL1        0.0020
     24 C          62.3417   81.9085   14.3038 C.ar    1  UNL1        0.0001
     25 C          63.3094   81.5779   13.2065 C.ar    1  UNL1        0.0000
     26 C          64.3068   82.6022   12.7522 C.ar    1  UNL1        0.0001
     27 C          64.3363   83.9569   13.3955 C.ar    1  UNL1        0.0020
@<TRIPOS>BOND
     1     5     6    1
     2     6     7   ar
     3     7     8   ar
     4     8     9   ar
     5     9    12    1
     6    12    13   ar
     7    13    14   ar
     8    14    15   ar
     9    15    16   ar
    10     9    10   ar
    11    10     1    1
    12     1     2   am
    13     2     3    2
    14     2    17    1
    15    17    18   ar
    16    18    19   ar
    17    19    20   ar
    18    20    22    1
    19    22    23   ar
    20    23    24   ar
    21    24    25   ar
    22    25    26   ar
    23    26    27   ar
    24    20    21   ar
    25    10    11   ar
    26    11     6   ar
    27    16    12   ar
    28    21    17   ar
    29    27    22   ar
    30     1     4    1
@<TRIPOS>MOLECULE
*****
 27 30 0 0 0
SMALL
GASTEIGER

@<TRIPOS>ATOM
      1 N          62.5710   88.0212   11.5721 N.am    1  UNL1       -0.2788
      2 C          63.0406   89.4457   11.5577 C.2     1  UNL1        0.2571
      3 O          62.8480   90.2865   10.3305 O.2     1  UNL1       -0.2692
      4 H          62.6974   87.4693   12.3775 H       1  UNL1        0.1552
      5 C          62.6715   84.7815    7.5108 C.3     1  UNL1        0.0311
      6 C          61.9591   85.8176    8.3287 C.ar    1  UNL1       -0.0205
      7 C          60.5846   86.2700    7.9338 C.ar    1  UNL1       -0.0027
      8 C          59.8722   87.3061    8.7516 C.ar    1  UNL1        0.0185
      9 C          60.5343   87.8898    9.9644 C.ar    1  UNL1        0.0789
     10 C          61.9088   87.4375   10.3593 C.ar    1  UNL1        0.0666
     11 C          62.6212   86.4013    9.5414 C.ar    1  UNL1        0.0119
     12 N          59.8219   88.9260   10.7823 N.ar    1  UNL1       -0.2852
     13 C          59.1314   88.6928   12.0933 C.ar    1  UNL1        0.1023
     14 C          58.5576   89.9999   12.5540 C.ar    1  UNL1        0.1196
     15 N          58.8935   91.0410   11.5277 N.ar    1  UNL1       -0.2220
     16 C          59.6748   90.3772   10.4327 C.ar    1  UNL1        0.1829
     17 C          63.7027   90.0294   12.7705 C.ar    1  UNL1        0.1035
     18 C          63.1477   90.0293   14.1640 C.ar    1  UNL1        0.1105
     19 N          64.1381   90.7155   15.0575 N.ar    1  UNL1       -0.2366
     20 C          65.3052   91.1398   14.2161 C.ar    1  UNL1        0.1109
     21 S          65.0361   90.7158   12.8027 S.2     1  UNL1       -0.0619
     22 C          66.5268   91.8614   14.7027 C.ar    1  UNL1        0.0238
     23 C          67.8005   91.7967   13.9130 C.ar    1  UNL1        0.0020
     24 C          69.0221   92.5183   14.3996 C.ar    1  UNL1        0.0001
     25 C          68.9702   93.3046   15.6759 C.ar    1  UNL1        0.0000
     26 C          67.6965   93.3693   16.4657 C.ar    1  UNL1        0.0001
     27 C          66.4749   92.6477   15.9790 C.ar    1  UNL1        0.0020
@<TRIPOS>BOND
     1     5     6    1
     2     6     7   ar
     3     7     8   ar
     4     8     9   ar
     5     9    12    1
     6    12    13   ar
     7    13    14   ar
     8    14    15   ar
     9    15    16   ar
    10     9    10   ar
    11    10     1    1
    12     1     2   am
    13     2     3    2
    14     2    17    1
    15    17    18   ar
    16    18    19   ar
    17    19    20   ar
    18    20    22    1
    19    22    23   ar
    20    23    24   ar
    21    24    25   ar
    22    25    26   ar
    23    26    27   ar
    24    20    21   ar
    25    10    11   ar
    26    11     6   ar
    27    16    12   ar
    28    21    17   ar
    29    27    22   ar
    30     1     4    1
@<TRIPOS>MOLECULE
*****
 27 30 0 0 0
SMALL
GASTEIGER

@<TRIPOS>ATOM
      1 N          64.3163   91.2265   12.3484 N.am    1  UNL1       -0.2788
      2 C          63.1422   90.3556   12.6846 C.2     1  UNL1        0.2571
      3 O          62.7828   90.1020   14.1187 O.2     1  UNL1       -0.2692
      4 H          64.5522   91.3930   11.4072 H       1  UNL1        0.1552
      5 C          65.0406   92.2300   17.3951 C.3     1  UNL1        0.0311
      6 C          65.4931   92.3456   15.9696 C.ar    1  UNL1       -0.0205
      7 C          66.7602   93.0784   15.6420 C.ar    1  UNL1       -0.0027
      8 C          67.2127   93.1940   14.2166 C.ar    1  UNL1        0.0185
      9 C          66.3981   92.5767   13.1187 C.ar    1  UNL1        0.0789
     10 C          65.1310   91.8439   13.4463 C.ar    1  UNL1        0.0666
     11 C          64.6785   91.7283   14.8718 C.ar    1  UNL1        0.0119
     12 N          66.8506   92.6923   11.6933 N.ar    1  UNL1       -0.2852
     13 C          67.9333   91.8826   11.0435 C.ar    1  UNL1        0.1023
     14 C          68.0517   92.3277    9.6160 C.ar    1  UNL1        0.1196
     15 N          67.0421   93.4125    9.3834 N.ar    1  UNL1       -0.2220
     16 C          66.2998   93.6378   10.6673 C.ar    1  UNL1        0.1829
     17 C          62.3276   89.7383   11.5867 C.ar    1  UNL1        0.1035
     18 C          61.0465   90.2821   11.0271 C.ar    1  UNL1        0.1105
     19 N          60.5780   89.3487    9.9503 N.ar    1  UNL1       -0.2366
     20 C          61.5697   88.2282    9.8444 C.ar    1  UNL1        0.1109
     21 S          62.6509   88.4690   10.8558 S.2     1  UNL1       -0.0619
     22 C          61.4935   87.0702    8.8941 C.ar    1  UNL1        0.0238
     23 C          60.2156   86.7826    8.1632 C.ar    1  UNL1        0.0020
     24 C          60.1394   85.6246    7.2129 C.ar    1  UNL1        0.0001
     25 C          61.3411   84.7542    6.9933 C.ar    1  UNL1        0.0000
     26 C          62.6191   85.0418    7.7242 C.ar    1  UNL1        0.0001
     27 C          62.6952   86.1998    8.6746 C.ar    1  UNL1        0.0020
@<TRIPOS>BOND
     1     5     6    1
     2     6     7   ar
     3     7     8   ar
     4     8     9   ar
     5     9    12    1
     6    12    13   ar
     7    13    14   ar
     8    14    15   ar
     9    15    16   ar
    10     9    10   ar
    11    10     1    1
    12     1     2   am
    13     2     3    2
    14     2    17    1
    15    17    18   ar
    16    18    19   ar
    17    19    20   ar
    18    20    22    1
    19    22    23   ar
    20    23    24   ar
    21    24    25   ar
    22    25    26   ar
    23    26    27   ar
    24    20    21   ar
    25    10    11   ar
    26    11     6   ar
    27    16    12   ar
    28    21    17   ar
    29    27    22   ar
    30     1     4    1
@<TRIPOS>MOLECULE
*****
 27 30 0 0 0
SMALL
GASTEIGER

@<TRIPOS>ATOM
      1 N          62.6510   89.3626    9.8900 N.am    1  UNL1       -0.2788
      2 C          62.4598   90.5584   10.7752 C.2     1  UNL1        0.2571
      3 O          61.0758   91.0203   11.1232 O.2     1  UNL1       -0.2692
      4 H          63.5594   89.0594    9.6616 H       1  UNL1        0.1552
      5 C          58.6081   89.1186    6.6349 C.3     1  UNL1        0.0311
      6 C          59.4367   88.5067    7.7254 C.ar    1  UNL1       -0.0205
      7 C          59.0724   87.1610    8.2787 C.ar    1  UNL1       -0.0027
      8 C          59.9010   86.5491    9.3691 C.ar    1  UNL1        0.0185
      9 C          61.0938   87.2829    9.9062 C.ar    1  UNL1        0.0789
     10 C          61.4581   88.6286    9.3529 C.ar    1  UNL1        0.0666
     11 C          60.6295   89.2405    8.2625 C.ar    1  UNL1        0.0119
     12 N          61.9224   86.6710   10.9967 N.ar    1  UNL1       -0.2852
     13 C          62.1396   85.2039   11.2213 C.ar    1  UNL1        0.1023
     14 C          63.0306   85.0449   12.4174 C.ar    1  UNL1        0.1196
     15 N          63.3642   86.4138   12.9321 N.ar    1  UNL1       -0.2220
     16 C          62.6792   87.4188   12.0541 C.ar    1  UNL1        0.1829
     17 C          63.6527   91.2923   11.3123 C.ar    1  UNL1        0.1035
     18 C          64.4394   92.3449   10.5889 C.ar    1  UNL1        0.1105
     19 N          65.5413   92.8056   11.4966 N.ar    1  UNL1       -0.2366
     20 C          65.4355   92.0377   12.7809 C.ar    1  UNL1        0.1109
     21 S          64.2683   91.1025   12.6669 S.2     1  UNL1       -0.0619
     22 C          66.3383   92.1801   13.9701 C.ar    1  UNL1        0.0238
     23 C          65.7557   92.4457   15.3266 C.ar    1  UNL1        0.0020
     24 C          66.6585   92.5881   16.5159 C.ar    1  UNL1        0.0001
     25 C          68.1441   92.4649   16.3488 C.ar    1  UNL1        0.0000
     26 C          68.7268   92.1993   14.9923 C.ar    1  UNL1        0.0001
     27 C          67.8239   92.0570   13.8031 C.ar    1  UNL1        0.0020
@<TRIPOS>BOND
     1     5     6    1
     2     6     7   ar
     3     7     8   ar
     4     8     9   ar
     5     9    12    1
     6    12    13   ar
     7    13    14   ar
     8    14    15   ar
     9    15    16   ar
    10     9    10   ar
    11    10     1    1
    12     1     2   am
    13     2     3    2
    14     2    17    1
    15    17    18   ar
    16    18    19   ar
    17    19    20   ar
    18    20    22    1
    19    22    23   ar
    20    23    24   ar
    21    24    25   ar
    22    25    26   ar
    23    26    27   ar
    24    20    21   ar
    25    10    11   ar
    26    11     6   ar
    27    16    12   ar
    28    21    17   ar
    29    27    22   ar
    30     1     4    1
@<TRIPOS>MOLECULE
*****
 27 30 0 0 0
SMALL
GASTEIGER

@<TRIPOS>ATOM
      1 N          63.6248   87.4605   13.1601 N.am    1  UNL1       -0.2788
      2 C          63.6311   86.6693   14.4344 C.2     1  UNL1        0.2571
      3 O          63.8837   87.3573   15.7431 O.2     1  UNL1       -0.2692
      4 H          63.4590   87.0089   12.3011 H       1  UNL1        0.1552
      5 C          66.1338   91.5600   15.1346 C.3     1  UNL1        0.0311
      6 C          65.1255   90.9895   14.1818 C.ar    1  UNL1       -0.0205
      7 C          64.3634   91.8982   13.2634 C.ar    1  UNL1       -0.0027
      8 C          63.3552   91.3277   12.3106 C.ar    1  UNL1        0.0185
      9 C          63.1089   89.8485   12.2761 C.ar    1  UNL1        0.0789
     10 C          63.8710   88.9398   13.1945 C.ar    1  UNL1        0.0666
     11 C          64.8793   89.5103   14.1473 C.ar    1  UNL1        0.0119
     12 N          62.1007   89.2780   11.3233 N.ar    1  UNL1       -0.2852
     13 C          60.6153   89.2411   11.5291 C.ar    1  UNL1        0.1023
     14 C          59.9973   88.5845   10.3304 C.ar    1  UNL1        0.1196
     15 N          61.1008   88.2156    9.3836 N.ar    1  UNL1       -0.2220
     16 C          62.4007   88.6442    9.9973 C.ar    1  UNL1        0.1829
     17 C          63.3849   85.1900   14.3999 C.ar    1  UNL1        0.1035
     18 C          63.1116   84.3139   15.5865 C.ar    1  UNL1        0.1105
     19 N          62.9266   82.9095   15.0928 N.ar    1  UNL1       -0.2366
     20 C          63.0856   82.9177   13.6013 C.ar    1  UNL1        0.1109
     21 S          63.3689   84.3271   13.1731 S.2     1  UNL1       -0.0619
     22 C          62.9799   81.7259   12.6968 C.ar    1  UNL1        0.0238
     23 C          63.2292   81.8765   11.2253 C.ar    1  UNL1        0.0020
     24 C          63.1235   80.6847   10.3208 C.ar    1  UNL1        0.0001
     25 C          62.7685   79.3420   10.8877 C.ar    1  UNL1        0.0000
     26 C          62.5192   79.1913   12.3592 C.ar    1  UNL1        0.0001
     27 C          62.6249   80.3833   13.2637 C.ar    1  UNL1        0.0020
@<TRIPOS>BOND
     1     5     6    1
     2     6     7   ar
     3     7     8   ar
     4     8     9   ar
     5     9    12    1
     6    12    13   ar
     7    13    14   ar
     8    14    15   ar
     9    15    16   ar
    10     9    10   ar
    11    10     1    1
    12     1     2   am
    13     2     3    2
    14     2    17    1
    15    17    18   ar
    16    18    19   ar
    17    19    20   ar
    18    20    22    1
    19    22    23   ar
    20    23    24   ar
    21    24    25   ar
    22    25    26   ar
    23    26    27   ar
    24    20    21   ar
    25    10    11   ar
    26    11     6   ar
    27    16    12   ar
    28    21    17   ar
    29    27    22   ar
    30     1     4    1
@<TRIPOS>MOLECULE
*****
 27 30 0 0 0
SMALL
GASTEIGER

@<TRIPOS>ATOM
      1 N          63.7170   85.8297   13.3323 N.am    1  UNL1       -0.2788
      2 C          63.3951   86.3435   14.7042 C.2     1  UNL1        0.2571
      3 O          62.7892   85.4269   15.7254 O.2     1  UNL1       -0.2692
      4 H          64.1147   86.4313   12.6621 H       1  UNL1        0.1552
      5 C          64.0349   80.7692   14.4683 C.3     1  UNL1        0.0311
      6 C          63.5919   81.8689   13.5494 C.ar    1  UNL1       -0.0205
      7 C          62.8650   81.5383   12.2797 C.ar    1  UNL1       -0.0027
      8 C          62.4221   82.6380   11.3608 C.ar    1  UNL1        0.0185
      9 C          62.7061   84.0685   11.7117 C.ar    1  UNL1        0.0789
     10 C          63.4330   84.3992   12.9814 C.ar    1  UNL1        0.0666
     11 C          63.8759   83.2994   13.9003 C.ar    1  UNL1        0.0119
     12 N          62.2631   85.1683   10.7928 N.ar    1  UNL1       -0.2852
     13 C          61.2676   86.2419   11.1184 C.ar    1  UNL1        0.1023
     14 C          61.1271   87.1247    9.9138 C.ar    1  UNL1        0.1196
     15 N          62.0360   86.5966    8.8437 N.ar    1  UNL1       -0.2220
     16 C          62.7380   85.3875    9.3870 C.ar    1  UNL1        0.1829
     17 C          63.6791   87.7740   15.0552 C.ar    1  UNL1        0.1035
     18 C          63.2289   88.4829   16.2981 C.ar    1  UNL1        0.1105
     19 N          63.7347   89.8938   16.2359 N.ar    1  UNL1       -0.2366
     20 C          64.4975   90.0567   14.9545 C.ar    1  UNL1        0.1109
     21 S          64.4631   88.7466   14.2248 S.2     1  UNL1       -0.0619
     22 C          65.1755   91.3096   14.4853 C.ar    1  UNL1        0.0238
     23 C          66.0011   92.1188   15.4412 C.ar    1  UNL1        0.0020
     24 C          66.6791   93.3718   14.9719 C.ar    1  UNL1        0.0001
     25 C          66.5316   93.8157   13.5468 C.ar    1  UNL1        0.0000
     26 C          65.7060   93.0066   12.5907 C.ar    1  UNL1        0.0001
     27 C          65.0280   91.7536   13.0601 C.ar    1  UNL1        0.0020
@<TRIPOS>BOND
     1     5     6    1
     2     6     7   ar
     3     7     8   ar
     4     8     9   ar
     5     9    12    1
     6    12    13   ar
     7    13    14   ar
     8    14    15   ar
     9    15    16   ar
    10     9    10   ar
    11    10     1    1
    12     1     2   am
    13     2     3    2
    14     2    17    1
    15    17    18   ar
    16    18    19   ar
    17    19    20   ar
    18    20    22    1
    19    22    23   ar
    20    23    24   ar
    21    24    25   ar
    22    25    26   ar
    23    26    27   ar
    24    20    21   ar
    25    10    11   ar
    26    11     6   ar
    27    16    12   ar
    28    21    17   ar
    29    27    22   ar
    30     1     4    1
@<TRIPOS>MOLECULE
*****
 27 30 0 0 0
SMALL
GASTEIGER

@<TRIPOS>ATOM
      1 N          63.1805   87.8446   12.5428 N.am    1  UNL1       -0.2788
      2 C          63.8580   87.4615   13.8251 C.2     1  UNL1        0.2571
      3 O          64.7046   88.4624   14.5542 O.2     1  UNL1       -0.2692
      4 H          62.6248   87.1878   12.0644 H       1  UNL1        0.1552
      5 C          65.3399   92.5635   12.8067 C.3     1  UNL1        0.0311
      6 C          64.4294   91.5880   12.1215 C.ar    1  UNL1       -0.0205
      7 C          63.6882   91.9964   10.8831 C.ar    1  UNL1       -0.0027
      8 C          62.7778   91.0209   10.1979 C.ar    1  UNL1        0.0185
      9 C          62.6085   89.6370   10.7511 C.ar    1  UNL1        0.0789
     10 C          63.3497   89.2286   11.9895 C.ar    1  UNL1        0.0666
     11 C          64.2602   90.2041   12.6747 C.ar    1  UNL1        0.0119
     12 N          61.6981   88.6615   10.0659 N.ar    1  UNL1       -0.2852
     13 C          62.1110   87.3680    9.4286 C.ar    1  UNL1        0.1023
     14 C          60.8830   86.7153    8.8665 C.ar    1  UNL1        0.1196
     15 N          59.7110   87.6055    9.1564 N.ar    1  UNL1       -0.2220
     16 C          60.2148   88.8083    9.8977 C.ar    1  UNL1        0.1829
     17 C          63.6887   86.0776   14.3784 C.ar    1  UNL1        0.1035
     18 C          64.0064   85.6430   15.7785 C.ar    1  UNL1        0.1105
     19 N          63.6861   84.1820   15.8942 N.ar    1  UNL1       -0.2366
     20 C          63.1706   83.7139   14.5656 C.ar    1  UNL1        0.1109
     21 S          63.1722   84.8854   13.6288 S.2     1  UNL1       -0.0619
     22 C          62.7307   82.3192   14.2323 C.ar    1  UNL1        0.0238
     23 C          61.2919   81.9275   14.3946 C.ar    1  UNL1        0.0020
     24 C          60.8520   80.5328   14.0613 C.ar    1  UNL1        0.0001
     25 C          61.8509   79.5296   13.5657 C.ar    1  UNL1        0.0000
     26 C          63.2899   79.9211   13.4034 C.ar    1  UNL1        0.0001
     27 C          63.7297   81.3160   13.7367 C.ar    1  UNL1        0.0020
@<TRIPOS>BOND
     1     5     6    1
     2     6     7   ar
     3     7     8   ar
     4     8     9   ar
     5     9    12    1
     6    12    13   ar
     7    13    14   ar
     8    14    15   ar
     9    15    16   ar
    10     9    10   ar
    11    10     1    1
    12     1     2   am
    13     2     3    2
    14     2    17    1
    15    17    18   ar
    16    18    19   ar
    17    19    20   ar
    18    20    22    1
    19    22    23   ar
    20    23    24   ar
    21    24    25   ar
    22    25    26   ar
    23    26    27   ar
    24    20    21   ar
    25    10    11   ar
    26    11     6   ar
    27    16    12   ar
    28    21    17   ar
    29    27    22   ar
    30     1     4    1
