@<TRIPOS>MOLECULE
*****
 38 43 0 0 0
SMALL
GASTEIGER

@<TRIPOS>ATOM
      1 C          60.5948   95.6296   -7.5608 C.3     1  UNL1        0.0718
      2 C          61.7210   95.7971   -6.5843 C.ar    1  UNL1        0.1207
      3 N          63.1334   96.1717   -6.9231 N.ar    1  UNL1       -0.2294
      4 C          63.9179   96.2255   -5.6457 C.ar    1  UNL1        0.1174
      5 C          65.3570   96.5412   -5.3642 C.ar    1  UNL1        0.1193
      6 N          65.8685   96.5156   -3.9543 N.ar    1  UNL1       -0.2421
      7 C          64.9409   96.1742   -2.8260 C.ar    1  UNL1        0.0850
      8 C          65.4524   96.1486   -1.4161 C.ar    1  UNL1        0.0488
      9 C          64.5249   95.8072   -0.2878 C.ar    1  UNL1        0.1416
     10 F          65.0364   95.7815    1.1220 F       1  UNL1       -0.2041
     11 C          63.0857   95.4914   -0.5694 C.ar    1  UNL1        0.0284
     12 C          62.5742   95.5171   -1.9793 C.ar    1  UNL1        0.0052
     13 C          63.5018   95.8585   -3.1076 C.ar    1  UNL1        0.0351
     14 C          62.9903   95.8841   -4.5174 C.ar    1  UNL1        0.0815
     15 N          61.6326   95.6193   -5.0975 N.ar    1  UNL1       -0.3166
     16 C          62.1581   95.1501    0.5588 C.ar    1  UNL1        0.0129
     17 C          61.2016   96.1807    1.0814 C.ar    1  UNL1        0.0040
     18 C          60.2740   95.8393    2.2096 C.ar    1  UNL1        0.0377
     19 C          60.3030   94.4673    2.8154 C.ar    1  UNL1        0.1495
     20 C          61.2595   93.4368    2.2929 C.ar    1  UNL1        0.0490
     21 C          62.1871   93.7782    1.1646 C.ar    1  UNL1        0.0608
     22 CL         63.1436   92.7477    0.6421 Cl      1  UNL1       -0.0821
     23 O          59.3754   94.1259    3.9437 O.3     1  UNL1       -0.4223
     24 C          59.3622   92.7368    4.5097 C.ar    1  UNL1        0.3246
     25 N          58.0689   92.1197    4.9528 N.ar    1  UNL1       -0.1924
     26 C          58.0558   90.7306    5.5188 C.ar    1  UNL1        0.1053
     27 C          59.3361   89.9587    5.6417 C.ar    1  UNL1        0.0416
     28 C          60.6294   90.5759    5.1986 C.ar    1  UNL1        0.1053
     29 N          60.6425   91.9649    4.6326 N.ar    1  UNL1       -0.1924
     30 C          60.4024   95.2429   -4.3262 C.3     1  UNL1        0.0894
     31 C          59.4392   96.3049   -3.8855 C.3     1  UNL1        0.0400
     32 C          58.2090   95.9285   -3.1142 C.3     1  UNL1        0.0750
     33 N          57.9420   94.4899   -2.7835 N.3     1  UNL1       -0.2598
     34 C          58.9052   93.4279   -3.2241 C.3     1  UNL1        0.0750
     35 C          60.1354   93.8043   -3.9955 C.3     1  UNL1        0.0400
     36 C          56.7118   94.1135   -2.0122 C.3     1  UNL1        0.1795
     37 C          56.1651   92.7199   -2.1058 C.1     1  UNL1        0.0912
     38 N          55.6183   91.3262   -2.1994 N.1     1  UNL1       -0.1944
@<TRIPOS>BOND
     1     1     2    1
     2     2     3   ar
     3     3     4   ar
     4     4     5   ar
     5     5     6   ar
     6     6     7   ar
     7     7     8   ar
     8     8     9   ar
     9     9    10    1
    10     9    11   ar
    11    11    16    1
    12    16    17   ar
    13    17    18   ar
    14    18    19   ar
    15    19    23    1
    16    23    24    1
    17    24    25   ar
    18    25    26   ar
    19    26    27   ar
    20    27    28   ar
    21    28    29   ar
    22    19    20   ar
    23    20    21   ar
    24    21    22    1
    25    11    12   ar
    26    12    13   ar
    27    13    14   ar
    28    14    15   ar
    29    15    30    1
    30    30    31    1
    31    31    32    1
    32    32    33    1
    33    33    36    1
    34    36    37    1
    35    37    38    3
    36    33    34    1
    37    34    35    1
    38    15     2   ar
    39    35    30    1
    40    14     4   ar
    41    13     7   ar
    42    21    16   ar
    43    29    24   ar
