@<TRIPOS>MOLECULE
*****
 39 42 0 0 0
SMALL
GASTEIGER

@<TRIPOS>ATOM
      1 C          62.4737   85.4253   10.0278 C.ar    1  UNL1        0.1484
      2 C          61.5533   85.1120    8.8854 C.ar    1  UNL1        0.0376
      3 C          60.6438   86.1739    8.3422 C.ar    1  UNL1        0.0044
      4 C          60.6546   87.5490    8.9412 C.ar    1  UNL1        0.0149
      5 C          61.5749   87.8624   10.0835 C.ar    1  UNL1        0.0546
      6 C          62.4845   86.8005   10.6268 C.ar    1  UNL1        0.0522
      7 N          61.5856   89.2375   10.6825 N.am    1  UNL1       -0.2679
      8 C          62.5902   89.5870   11.7402 C.2     1  UNL1        0.3093
      9 O          63.5840   88.5613   12.1989 O.2     1  UNL1       -0.2521
     10 N          62.6009   90.9622   12.3392 N.am    1  UNL1       -0.2508
     11 H          60.9334   89.9107   10.3814 H       1  UNL1        0.1564
     12 H          61.9487   91.6354   12.0381 H       1  UNL1        0.1579
     13 C          63.6055   91.3116   13.3969 C.ar    1  UNL1        0.1771
     14 C          65.0282   91.7238   13.1599 C.ar    1  UNL1        0.0737
     15 C          65.6657   91.9772   14.4938 C.ar    1  UNL1        0.1629
     16 O          64.6370   91.7216   15.5553 O.2     1  UNL1       -0.3563
     17 N          63.3638   91.3103   14.8773 N.ar    1  UNL1       -0.0621
     18 C          67.0831   92.4101   14.7257 C.3     1  UNL1        0.1409
     19 C          66.7386   92.7818   16.1374 C.3     1  UNL1        0.0162
     20 C          67.4275   92.0384   13.3139 C.3     1  UNL1        0.0162
     21 C          68.5004   92.8430   14.9575 C.3     1  UNL1        0.4035
     22 F          69.9177   93.2760   15.1893 F       1  UNL1       -0.1696
     23 F          68.0666   93.6148   16.1683 F       1  UNL1       -0.1696
     24 F          68.9342   92.0713   13.7466 F       1  UNL1       -0.1696
     25 O          63.3832   84.3634   10.5711 O.3     1  UNL1       -0.4360
     26 C          63.5159   85.1553   15.9195 C.ar    1  UNL1        0.1739
     27 C          62.9051   83.8007   15.7145 C.ar    1  UNL1        0.0593
     28 C          62.7192   83.2641   14.3261 C.ar    1  UNL1        0.0908
     29 N          62.1084   81.9095   14.1212 N.ar    1  UNL1       -0.2237
     30 C          61.9226   81.3729   12.7328 C.ar    1  UNL1        0.2015
     31 N          62.3475   82.1909   11.5495 N.ar    1  UNL1       -0.1890
     32 C          62.9583   83.5455   11.7544 C.ar    1  UNL1        0.2325
     33 C          63.1442   84.0820   13.1428 C.ar    1  UNL1        0.0745
     34 C          63.7550   85.4367   13.3478 C.ar    1  UNL1        0.0462
     35 C          63.9409   85.9732   14.7361 C.ar    1  UNL1        0.1726
     36 C          62.5771   86.4124   17.9902 C.3     1  UNL1        0.2526
     37 O          63.7018   85.6919   17.3078 O.3     1  UNL1       -0.4683
     38 O          64.5517   87.3279   14.9411 O.3     1  UNL1       -0.4684
     39 C          63.7697   88.4067   15.6300 C.3     1  UNL1        0.2526
@<TRIPOS>BOND
     1    36    37    1
     2    37    26    1
     3    26    27   ar
     4    27    28   ar
     5    28    29   ar
     6    29    30   ar
     7    30    31   ar
     8    31    32   ar
     9    32    25    1
    10    25     1    1
    11     1     2   ar
    12     2     3   ar
    13     3     4   ar
    14     4     5   ar
    15     5     7    1
    16     7     8   am
    17     8     9    2
    18     8    10   am
    19    10    13    1
    20    13    14   ar
    21    14    15   ar
    22    15    18    1
    23    18    19    1
    24    18    20    1
    25    18    21    1
    26    21    22    1
    27    21    23    1
    28    21    24    1
    29    15    16   ar
    30    16    17   ar
    31     5     6   ar
    32    32    33   ar
    33    33    34   ar
    34    34    35   ar
    35    35    38    1
    36    38    39    1
    37    35    26   ar
    38    33    28   ar
    39     6     1   ar
    40    17    13   ar
    41     7    11    1
    42    10    12    1
@<TRIPOS>MOLECULE
*****
 39 42 0 0 0
SMALL
GASTEIGER

@<TRIPOS>ATOM
      1 C          64.0387   85.8902   15.7023 C.ar    1  UNL1        0.1484
      2 C          63.4730   85.4498   17.0200 C.ar    1  UNL1        0.0376
      3 C          62.7664   86.4374   17.9005 C.ar    1  UNL1        0.0044
      4 C          62.6253   87.8653   17.4635 C.ar    1  UNL1        0.0149
      5 C          63.1910   88.3058   16.1459 C.ar    1  UNL1        0.0546
      6 C          63.8977   87.3182   15.2653 C.ar    1  UNL1        0.0522
      7 N          63.0500   89.7338   15.7089 N.am    1  UNL1       -0.2679
      8 C          64.1399   90.3847   14.9100 C.2     1  UNL1        0.3093
      9 O          65.3709   89.6077   14.5481 O.2     1  UNL1       -0.2521
     10 N          63.9989   91.8127   14.4729 N.am    1  UNL1       -0.2508
     11 H          62.2420   90.2437   15.9464 H       1  UNL1        0.1564
     12 H          63.1910   92.3227   14.7104 H       1  UNL1        0.1579
     13 C          65.0889   92.4636   13.6740 C.ar    1  UNL1        0.1771
     14 C          65.2227   92.4376   12.1802 C.ar    1  UNL1        0.0737
     15 C          66.4530   93.2128   11.8115 C.ar    1  UNL1        0.1629
     16 O          67.0793   93.7178   13.0775 O.2     1  UNL1       -0.3563
     17 N          66.2363   93.2548   14.2286 N.ar    1  UNL1       -0.0621
     18 C          66.9666   93.4425   10.4211 C.3     1  UNL1        0.1409
     19 C          66.2153   94.7393   10.3578 C.3     1  UNL1        0.0162
     20 C          67.7179   92.1458   10.4843 C.3     1  UNL1        0.0162
     21 C          67.4802   93.6723    9.0306 C.3     1  UNL1        0.4035
     22 F          67.9939   93.9021    7.6402 F       1  UNL1       -0.1696
     23 F          66.6001   94.8804    8.9051 F       1  UNL1       -0.1696
     24 F          68.3604   92.4642    9.1561 F       1  UNL1       -0.1696
     25 O          64.7453   84.9027   14.8218 O.3     1  UNL1       -0.4360
     26 C          62.0017   86.5942   10.4789 C.ar    1  UNL1        0.1739
     27 C          61.9163   85.0967   10.4676 C.ar    1  UNL1        0.0593
     28 C          62.5809   84.2994   11.5506 C.ar    1  UNL1        0.0908
     29 N          62.4954   82.8019   11.5393 N.ar    1  UNL1       -0.2237
     30 C          63.1600   82.0047   12.6222 C.ar    1  UNL1        0.2015
     31 N          63.9100   82.7050   13.7164 N.ar    1  UNL1       -0.1890
     32 C          63.9954   84.2024   13.7276 C.ar    1  UNL1        0.2325
     33 C          63.3308   84.9997   12.6447 C.ar    1  UNL1        0.0745
     34 C          63.4162   86.4973   12.6559 C.ar    1  UNL1        0.0462
     35 C          62.7517   87.2945   11.5730 C.ar    1  UNL1        0.1726
     36 C          59.8771   87.1988    9.1111 C.3     1  UNL1        0.2526
     37 O          61.3372   87.3915    9.3959 O.3     1  UNL1       -0.4683
     38 O          62.8371   88.7921   11.5842 O.3     1  UNL1       -0.4684
     39 C          61.6493   89.6079   12.0009 C.3     1  UNL1        0.2526
@<TRIPOS>BOND
     1    36    37    1
     2    37    26    1
     3    26    27   ar
     4    27    28   ar
     5    28    29   ar
     6    29    30   ar
     7    30    31   ar
     8    31    32   ar
     9    32    25    1
    10    25     1    1
    11     1     2   ar
    12     2     3   ar
    13     3     4   ar
    14     4     5   ar
    15     5     7    1
    16     7     8   am
    17     8     9    2
    18     8    10   am
    19    10    13    1
    20    13    14   ar
    21    14    15   ar
    22    15    18    1
    23    18    19    1
    24    18    20    1
    25    18    21    1
    26    21    22    1
    27    21    23    1
    28    21    24    1
    29    15    16   ar
    30    16    17   ar
    31     5     6   ar
    32    32    33   ar
    33    33    34   ar
    34    34    35   ar
    35    35    38    1
    36    38    39    1
    37    35    26   ar
    38    33    28   ar
    39     6     1   ar
    40    17    13   ar
    41     7    11    1
    42    10    12    1
@<TRIPOS>MOLECULE
*****
 39 42 0 0 0
SMALL
GASTEIGER

@<TRIPOS>ATOM
      1 C          65.1338   91.9731   14.4058 C.ar    1  UNL1        0.1484
      2 C          64.7381   91.9240   15.8519 C.ar    1  UNL1        0.0376
      3 C          63.8137   90.8485   16.3404 C.ar    1  UNL1        0.0044
      4 C          63.2848   89.8221   15.3828 C.ar    1  UNL1        0.0149
      5 C          63.6805   89.8712   13.9368 C.ar    1  UNL1        0.0546
      6 C          64.6050   90.9467   13.4483 C.ar    1  UNL1        0.0522
      7 N          63.1516   88.8448   12.9793 N.am    1  UNL1       -0.2679
      8 C          63.3564   87.3849   13.2562 C.2     1  UNL1        0.3093
      9 O          64.0900   86.9513   14.4907 O.2     1  UNL1       -0.2521
     10 N          62.8275   86.3585   12.2987 N.am    1  UNL1       -0.2508
     11 H          62.6701   89.1293   12.1691 H       1  UNL1        0.1564
     12 H          62.3460   86.6430   11.4885 H       1  UNL1        0.1579
     13 C          63.0323   84.8985   12.5757 C.ar    1  UNL1        0.1771
     14 C          62.7262   83.7713   11.6346 C.ar    1  UNL1        0.0737
     15 C          63.0838   82.4855   12.3196 C.ar    1  UNL1        0.1629
     16 O          63.6109   82.8183   13.6840 O.2     1  UNL1       -0.3563
     17 N          63.5791   84.3096   13.8422 N.ar    1  UNL1       -0.0621
     18 C          62.9397   81.1089   11.7417 C.3     1  UNL1        0.1409
     19 C          63.4116   81.6177   10.4119 C.3     1  UNL1        0.0162
     20 C          62.4678   80.6001   13.0716 C.3     1  UNL1        0.0162
     21 C          62.7955   79.7322   11.1639 C.3     1  UNL1        0.4035
     22 F          62.6514   78.3556   10.5860 F       1  UNL1       -0.1696
     23 F          62.4486   79.1984   12.5220 F       1  UNL1       -0.1696
     24 F          63.1424   80.2660    9.8057 F       1  UNL1       -0.1696
     25 O          66.0583   93.0485   13.9173 O.3     1  UNL1       -0.4360
     26 C          66.8613   95.4344    9.1305 C.ar    1  UNL1        0.1739
     27 C          67.8189   94.2812    9.1864 C.ar    1  UNL1        0.0593
     28 C          67.8576   93.3964   10.3971 C.ar    1  UNL1        0.0908
     29 N          68.8152   92.2433   10.4530 N.ar    1  UNL1       -0.2237
     30 C          68.8539   91.3586   11.6637 C.ar    1  UNL1        0.2015
     31 N          67.9349   91.6270   12.8184 N.ar    1  UNL1       -0.1890
     32 C          66.9773   92.7801   12.7625 C.ar    1  UNL1        0.2325
     33 C          66.9386   93.6649   11.5519 C.ar    1  UNL1        0.0745
     34 C          65.9809   94.8181   11.4959 C.ar    1  UNL1        0.0462
     35 C          65.9423   95.7028   10.2853 C.ar    1  UNL1        0.1726
     36 C          65.7845   96.0956    6.8604 C.3     1  UNL1        0.2526
     37 O          66.8226   96.3192    7.9198 O.3     1  UNL1       -0.4683
     38 O          64.9846   96.8560   10.2293 O.3     1  UNL1       -0.4684
     39 C          63.7151   96.7390    9.4390 C.3     1  UNL1        0.2526
@<TRIPOS>BOND
     1    36    37    1
     2    37    26    1
     3    26    27   ar
     4    27    28   ar
     5    28    29   ar
     6    29    30   ar
     7    30    31   ar
     8    31    32   ar
     9    32    25    1
    10    25     1    1
    11     1     2   ar
    12     2     3   ar
    13     3     4   ar
    14     4     5   ar
    15     5     7    1
    16     7     8   am
    17     8     9    2
    18     8    10   am
    19    10    13    1
    20    13    14   ar
    21    14    15   ar
    22    15    18    1
    23    18    19    1
    24    18    20    1
    25    18    21    1
    26    21    22    1
    27    21    23    1
    28    21    24    1
    29    15    16   ar
    30    16    17   ar
    31     5     6   ar
    32    32    33   ar
    33    33    34   ar
    34    34    35   ar
    35    35    38    1
    36    38    39    1
    37    35    26   ar
    38    33    28   ar
    39     6     1   ar
    40    17    13   ar
    41     7    11    1
    42    10    12    1
@<TRIPOS>MOLECULE
*****
 39 42 0 0 0
SMALL
GASTEIGER

@<TRIPOS>ATOM
      1 C          59.8290   88.1110   10.0662 C.ar    1  UNL1        0.1484
      2 C          59.0148   88.4078   11.2906 C.ar    1  UNL1        0.0376
      3 C          59.2723   89.6586   12.0775 C.ar    1  UNL1        0.0044
      4 C          60.3439   90.6127   11.6399 C.ar    1  UNL1        0.0149
      5 C          61.1580   90.3159   10.4156 C.ar    1  UNL1        0.0546
      6 C          60.9006   89.0650    9.6287 C.ar    1  UNL1        0.0522
      7 N          62.2296   91.2700    9.9781 N.am    1  UNL1       -0.2679
      8 C          63.5309   91.3287   10.7219 C.2     1  UNL1        0.3093
      9 O          63.7605   90.4334   11.9033 O.2     1  UNL1       -0.2521
     10 N          64.6025   92.2828   10.2844 N.am    1  UNL1       -0.2508
     11 H          62.0789   91.8576    9.2027 H       1  UNL1        0.1564
     12 H          64.4517   92.8704    9.5090 H       1  UNL1        0.1579
     13 C          65.9037   92.3415   11.0283 C.ar    1  UNL1        0.1771
     14 C          66.0664   92.3698   12.5192 C.ar    1  UNL1        0.0737
     15 C          67.5340   92.4280   12.8243 C.ar    1  UNL1        0.1629
     16 O          68.2782   92.4357   11.5218 O.2     1  UNL1       -0.3563
     17 N          67.2706   92.3823   10.4119 N.ar    1  UNL1       -0.0621
     18 C          68.1492   92.4710   14.1916 C.3     1  UNL1        0.1409
     19 C          66.8852   93.0622   14.7418 C.3     1  UNL1        0.0162
     20 C          69.4132   91.8798   13.6414 C.3     1  UNL1        0.0162
     21 C          68.7645   92.5140   15.5589 C.3     1  UNL1        0.4035
     22 F          69.3798   92.5570   16.9262 F       1  UNL1       -0.1696
     23 F          67.9933   91.2866   15.9445 F       1  UNL1       -0.1696
     24 F          69.5357   93.7414   15.1733 F       1  UNL1       -0.1696
     25 O          59.5715   86.8602    9.2794 O.3     1  UNL1       -0.4360
     26 C          63.6755   84.2038   11.5926 C.ar    1  UNL1        0.1739
     27 C          63.8419   84.0197   10.1133 C.ar    1  UNL1        0.0593
     28 C          62.8575   84.6378    9.1651 C.ar    1  UNL1        0.0908
     29 N          63.0239   84.4537    7.6858 N.ar    1  UNL1       -0.2237
     30 C          62.0396   85.0718    6.7377 C.ar    1  UNL1        0.2015
     31 N          60.8888   85.8739    7.2689 N.ar    1  UNL1       -0.1890
     32 C          60.7223   86.0580    8.7482 C.ar    1  UNL1        0.2325
     33 C          61.7067   85.4399    9.6963 C.ar    1  UNL1        0.0745
     34 C          61.5403   85.6240   11.1757 C.ar    1  UNL1        0.0462
     35 C          62.5246   85.0059   12.1238 C.ar    1  UNL1        0.1726
     36 C          64.5001   82.1544   12.9601 C.3     1  UNL1        0.2526
     37 O          64.6599   83.5857   12.5408 O.3     1  UNL1       -0.4683
     38 O          62.3582   85.1900   13.6032 O.3     1  UNL1       -0.4684
     39 C          61.9929   84.0202   14.4681 C.3     1  UNL1        0.2526
@<TRIPOS>BOND
     1    36    37    1
     2    37    26    1
     3    26    27   ar
     4    27    28   ar
     5    28    29   ar
     6    29    30   ar
     7    30    31   ar
     8    31    32   ar
     9    32    25    1
    10    25     1    1
    11     1     2   ar
    12     2     3   ar
    13     3     4   ar
    14     4     5   ar
    15     5     7    1
    16     7     8   am
    17     8     9    2
    18     8    10   am
    19    10    13    1
    20    13    14   ar
    21    14    15   ar
    22    15    18    1
    23    18    19    1
    24    18    20    1
    25    18    21    1
    26    21    22    1
    27    21    23    1
    28    21    24    1
    29    15    16   ar
    30    16    17   ar
    31     5     6   ar
    32    32    33   ar
    33    33    34   ar
    34    34    35   ar
    35    35    38    1
    36    38    39    1
    37    35    26   ar
    38    33    28   ar
    39     6     1   ar
    40    17    13   ar
    41     7    11    1
    42    10    12    1
@<TRIPOS>MOLECULE
*****
 39 42 0 0 0
SMALL
GASTEIGER

@<TRIPOS>ATOM
      1 C          62.2557   85.7476   10.4226 C.ar    1  UNL1        0.1484
      2 C          61.2328   85.8483    9.3300 C.ar    1  UNL1        0.0376
      3 C          60.4831   87.1305    9.1204 C.ar    1  UNL1        0.0044
      4 C          60.7561   88.3119   10.0033 C.ar    1  UNL1        0.0149
      5 C          61.7789   88.2113   11.0959 C.ar    1  UNL1        0.0546
      6 C          62.5287   86.9291   11.3056 C.ar    1  UNL1        0.0522
      7 N          62.0519   89.3928   11.9788 N.am    1  UNL1       -0.2679
      8 C          63.1944   90.3135   11.6676 C.2     1  UNL1        0.3093
      9 O          64.0639   90.0528   10.4734 O.2     1  UNL1       -0.2521
     10 N          63.4674   91.4950   12.5505 N.am    1  UNL1       -0.2508
     11 H          61.4812   89.5639   12.7626 H       1  UNL1        0.1564
     12 H          62.8968   91.6661   13.3343 H       1  UNL1        0.1579
     13 C          64.6100   92.4158   12.2392 C.ar    1  UNL1        0.1771
     14 C          64.8665   93.0889   10.9235 C.ar    1  UNL1        0.0737
     15 C          66.1116   93.9143   11.0601 C.ar    1  UNL1        0.1629
     16 O          66.6246   93.7511   12.4602 O.2     1  UNL1       -0.3563
     17 N          65.6965   92.8250   13.1889 N.ar    1  UNL1       -0.0621
     18 C          66.7344   94.7550    9.9853 C.3     1  UNL1        0.1409
     19 C          65.8925   95.9216   10.4100 C.3     1  UNL1        0.0162
     20 C          67.5763   93.5885    9.5606 C.3     1  UNL1        0.0162
     21 C          67.3572   95.5958    8.9105 C.3     1  UNL1        0.4035
     22 F          67.9800   96.4366    7.8357 F       1  UNL1       -0.1696
     23 F          67.3748   96.7722    9.8410 F       1  UNL1       -0.1696
     24 F          67.3396   94.4194    7.9801 F       1  UNL1       -0.1696
     25 O          63.0054   84.4655   10.6323 O.3     1  UNL1       -0.4360
     26 C          63.5589   85.3354   15.9414 C.ar    1  UNL1        0.1739
     27 C          63.0280   83.9395   15.8017 C.ar    1  UNL1        0.0593
     28 C          62.7569   83.3730   14.4394 C.ar    1  UNL1        0.0908
     29 N          62.2260   81.9771   14.2997 N.ar    1  UNL1       -0.2237
     30 C          61.9550   81.4107   12.9375 C.ar    1  UNL1        0.2015
     31 N          62.2147   82.2401   11.7150 N.ar    1  UNL1       -0.1890
     32 C          62.7456   83.6360   11.8548 C.ar    1  UNL1        0.2325
     33 C          63.0167   84.2025   13.2169 C.ar    1  UNL1        0.0745
     34 C          63.5476   85.5985   13.3567 C.ar    1  UNL1        0.0462
     35 C          63.8187   86.1649   14.7189 C.ar    1  UNL1        0.1726
     36 C          62.7192   86.5368   18.0866 C.3     1  UNL1        0.2526
     37 O          63.8300   85.9019   17.3036 O.3     1  UNL1       -0.4683
     38 O          64.3496   87.5609   14.8587 O.3     1  UNL1       -0.4684
     39 C          63.4394   88.6688   15.2990 C.3     1  UNL1        0.2526
@<TRIPOS>BOND
     1    36    37    1
     2    37    26    1
     3    26    27   ar
     4    27    28   ar
     5    28    29   ar
     6    29    30   ar
     7    30    31   ar
     8    31    32   ar
     9    32    25    1
    10    25     1    1
    11     1     2   ar
    12     2     3   ar
    13     3     4   ar
    14     4     5   ar
    15     5     7    1
    16     7     8   am
    17     8     9    2
    18     8    10   am
    19    10    13    1
    20    13    14   ar
    21    14    15   ar
    22    15    18    1
    23    18    19    1
    24    18    20    1
    25    18    21    1
    26    21    22    1
    27    21    23    1
    28    21    24    1
    29    15    16   ar
    30    16    17   ar
    31     5     6   ar
    32    32    33   ar
    33    33    34   ar
    34    34    35   ar
    35    35    38    1
    36    38    39    1
    37    35    26   ar
    38    33    28   ar
    39     6     1   ar
    40    17    13   ar
    41     7    11    1
    42    10    12    1
@<TRIPOS>MOLECULE
*****
 39 42 0 0 0
SMALL
GASTEIGER

@<TRIPOS>ATOM
      1 C          63.5372   88.6169   16.3972 C.ar    1  UNL1        0.1484
      2 C          63.0094   88.3669   17.7789 C.ar    1  UNL1        0.0376
      3 C          62.8409   86.9613   18.2745 C.ar    1  UNL1        0.0044
      4 C          63.2003   85.8055   17.3884 C.ar    1  UNL1        0.0149
      5 C          63.7281   86.0554   16.0068 C.ar    1  UNL1        0.0546
      6 C          63.8966   87.4611   15.5112 C.ar    1  UNL1        0.0522
      7 N          64.0875   84.8996   15.1208 N.am    1  UNL1       -0.2679
      8 C          63.7819   84.9562   13.6534 C.2     1  UNL1        0.3093
      9 O          63.1168   86.1685   13.0719 O.2     1  UNL1       -0.2521
     10 N          64.1412   83.8004   12.7674 N.am    1  UNL1       -0.2508
     11 H          64.5239   84.1039   15.5024 H       1  UNL1        0.1564
     12 H          64.5777   83.0047   13.1489 H       1  UNL1        0.1579
     13 C          63.8356   83.8570   11.2999 C.ar    1  UNL1        0.1771
     14 C          62.7777   84.7000   10.6516 C.ar    1  UNL1        0.0737
     15 C          62.8224   84.4446    9.1741 C.ar    1  UNL1        0.1629
     16 O          63.9079   83.4437    8.9094 O.2     1  UNL1       -0.3563
     17 N          64.5340   83.0805   10.2232 N.ar    1  UNL1       -0.0621
     18 C          61.9371   85.0786    8.1425 C.3     1  UNL1        0.1409
     19 C          62.6760   84.3491    7.0600 C.3     1  UNL1        0.0162
     20 C          61.1983   85.8082    9.2250 C.3     1  UNL1        0.0162
     21 C          61.0518   85.7127    7.1109 C.3     1  UNL1        0.4035
     22 F          60.1666   86.3468    6.0793 F       1  UNL1       -0.1696
     23 F          61.4068   84.6269    6.1389 F       1  UNL1       -0.1696
     24 F          60.6969   86.7986    8.0830 F       1  UNL1       -0.1696
     25 O          63.7057   90.0226   15.9016 O.3     1  UNL1       -0.4360
     26 C          66.3771   92.8059   12.1114 C.ar    1  UNL1        0.1739
     27 C          65.1204   92.3131   11.4573 C.ar    1  UNL1        0.0593
     28 C          64.1383   91.4941   12.2414 C.ar    1  UNL1        0.0908
     29 N          62.8816   91.0013   11.5873 N.ar    1  UNL1       -0.2237
     30 C          61.8996   90.1823   12.3714 C.ar    1  UNL1        0.2015
     31 N          62.1743   89.8560   13.8095 N.ar    1  UNL1       -0.1890
     32 C          63.4310   90.3488   14.4635 C.ar    1  UNL1        0.2325
     33 C          64.4130   91.1678   13.6795 C.ar    1  UNL1        0.0745
     34 C          65.6698   91.6607   14.3335 C.ar    1  UNL1        0.0462
     35 C          66.6518   92.4797   13.5494 C.ar    1  UNL1        0.1726
     36 C          67.0035   94.1095    9.9530 C.3     1  UNL1        0.2526
     37 O          67.3592   93.6250   11.3273 O.3     1  UNL1       -0.4683
     38 O          67.9086   92.9725   14.2035 O.3     1  UNL1       -0.4684
     39 C          67.9006   93.3484   15.6556 C.3     1  UNL1        0.2526
@<TRIPOS>BOND
     1    36    37    1
     2    37    26    1
     3    26    27   ar
     4    27    28   ar
     5    28    29   ar
     6    29    30   ar
     7    30    31   ar
     8    31    32   ar
     9    32    25    1
    10    25     1    1
    11     1     2   ar
    12     2     3   ar
    13     3     4   ar
    14     4     5   ar
    15     5     7    1
    16     7     8   am
    17     8     9    2
    18     8    10   am
    19    10    13    1
    20    13    14   ar
    21    14    15   ar
    22    15    18    1
    23    18    19    1
    24    18    20    1
    25    18    21    1
    26    21    22    1
    27    21    23    1
    28    21    24    1
    29    15    16   ar
    30    16    17   ar
    31     5     6   ar
    32    32    33   ar
    33    33    34   ar
    34    34    35   ar
    35    35    38    1
    36    38    39    1
    37    35    26   ar
    38    33    28   ar
    39     6     1   ar
    40    17    13   ar
    41     7    11    1
    42    10    12    1
@<TRIPOS>MOLECULE
*****
 39 42 0 0 0
SMALL
GASTEIGER

@<TRIPOS>ATOM
      1 C          61.6816   87.2106   10.3366 C.ar    1  UNL1        0.1484
      2 C          60.1863   87.2320   10.2193 C.ar    1  UNL1        0.0376
      3 C          59.4797   88.5078    9.8687 C.ar    1  UNL1        0.0044
      4 C          60.2684   89.7622    9.6354 C.ar    1  UNL1        0.0149
      5 C          61.7636   89.7409    9.7527 C.ar    1  UNL1        0.0546
      6 C          62.4703   88.4650   10.1034 C.ar    1  UNL1        0.0522
      7 N          62.5522   90.9953    9.5195 N.am    1  UNL1       -0.2679
      8 C          63.5416   91.4610   10.5461 C.2     1  UNL1        0.3093
      9 O          63.7425   90.6722   11.8062 O.2     1  UNL1       -0.2521
     10 N          64.3303   92.7155   10.3129 N.am    1  UNL1       -0.2508
     11 H          62.4204   91.5130    8.6925 H       1  UNL1        0.1564
     12 H          64.1984   93.2332    9.4859 H       1  UNL1        0.1579
     13 C          65.3197   93.1812   11.3396 C.ar    1  UNL1        0.1771
     14 C          65.8939   92.3523   12.4502 C.ar    1  UNL1        0.0737
     15 C          66.8378   93.2163   13.2330 C.ar    1  UNL1        0.1629
     16 O          66.8469   94.5791   12.6062 O.2     1  UNL1       -0.3563
     17 N          65.9087   94.5573   11.4360 N.ar    1  UNL1       -0.0621
     18 C          67.6329   92.7920   14.4321 C.3     1  UNL1        0.1409
     19 C          66.6731   93.5197   15.3260 C.3     1  UNL1        0.0162
     20 C          68.5928   92.0644   13.5381 C.3     1  UNL1        0.0162
     21 C          68.4281   92.3677   15.6311 C.3     1  UNL1        0.4035
     22 F          69.2232   91.9435   16.8302 F       1  UNL1       -0.1696
     23 F          67.7714   91.0198   15.5896 F       1  UNL1       -0.1696
     24 F          69.0848   93.7157   15.6726 F       1  UNL1       -0.1696
     25 O          62.3882   85.9347   10.6872 O.3     1  UNL1       -0.4360
     26 C          63.3862   81.5919   13.7522 C.ar    1  UNL1        0.1739
     27 C          63.7973   82.7809   14.5690 C.ar    1  UNL1        0.0593
     28 C          63.6506   84.1640   14.0070 C.ar    1  UNL1        0.0908
     29 N          64.0617   85.3530   14.8238 N.ar    1  UNL1       -0.2237
     30 C          63.9150   86.7359   14.2617 C.ar    1  UNL1        0.2015
     31 N          63.3572   86.9298   12.8829 N.ar    1  UNL1       -0.1890
     32 C          62.9461   85.7408   12.0661 C.ar    1  UNL1        0.2325
     33 C          63.0928   84.3579   12.6281 C.ar    1  UNL1        0.0745
     34 C          62.6816   83.1688   11.8113 C.ar    1  UNL1        0.0462
     35 C          62.8283   81.7859   12.3734 C.ar    1  UNL1        0.1726
     36 C          62.3777   79.2533   14.2659 C.3     1  UNL1        0.2526
     37 O          63.5329   80.2089   14.3142 O.3     1  UNL1       -0.4683
     38 O          62.4172   80.5968   11.5565 O.3     1  UNL1       -0.4684
     39 C          63.1270   80.2878   10.2717 C.3     1  UNL1        0.2526
@<TRIPOS>BOND
     1    36    37    1
     2    37    26    1
     3    26    27   ar
     4    27    28   ar
     5    28    29   ar
     6    29    30   ar
     7    30    31   ar
     8    31    32   ar
     9    32    25    1
    10    25     1    1
    11     1     2   ar
    12     2     3   ar
    13     3     4   ar
    14     4     5   ar
    15     5     7    1
    16     7     8   am
    17     8     9    2
    18     8    10   am
    19    10    13    1
    20    13    14   ar
    21    14    15   ar
    22    15    18    1
    23    18    19    1
    24    18    20    1
    25    18    21    1
    26    21    22    1
    27    21    23    1
    28    21    24    1
    29    15    16   ar
    30    16    17   ar
    31     5     6   ar
    32    32    33   ar
    33    33    34   ar
    34    34    35   ar
    35    35    38    1
    36    38    39    1
    37    35    26   ar
    38    33    28   ar
    39     6     1   ar
    40    17    13   ar
    41     7    11    1
    42    10    12    1
@<TRIPOS>MOLECULE
*****
 39 42 0 0 0
SMALL
GASTEIGER

@<TRIPOS>ATOM
      1 C          63.4721   91.1918   10.8530 C.ar    1  UNL1        0.1484
      2 C          62.2794   90.9068    9.9890 C.ar    1  UNL1        0.0376
      3 C          61.4446   89.6865   10.2417 C.ar    1  UNL1        0.0044
      4 C          61.8023   88.7511   11.3584 C.ar    1  UNL1        0.0149
      5 C          62.9948   89.0361   12.2225 C.ar    1  UNL1        0.0546
      6 C          63.8297   90.2564   11.9698 C.ar    1  UNL1        0.0522
      7 N          63.3525   88.1007   13.3393 N.am    1  UNL1       -0.2679
      8 C          63.2336   86.6184   13.1432 C.2     1  UNL1        0.3093
      9 O          62.7569   86.0713   11.8303 O.2     1  UNL1       -0.2521
     10 N          63.5913   85.6830   14.2600 N.am    1  UNL1       -0.2508
     11 H          63.6654   88.4597   14.2009 H       1  UNL1        0.1564
     12 H          63.9041   86.0420   15.1216 H       1  UNL1        0.1579
     13 C          63.4723   84.2006   14.0638 C.ar    1  UNL1        0.1771
     14 C          63.2699   83.4981   12.7541 C.ar    1  UNL1        0.0737
     15 C          63.2073   82.0237   13.0237 C.ar    1  UNL1        0.1629
     16 O          63.3711   81.8153   14.5002 O.2     1  UNL1       -0.3563
     17 N          63.5348   83.1606   15.1429 N.ar    1  UNL1       -0.0621
     18 C          63.0148   80.9471   11.9973 C.3     1  UNL1        0.1409
     19 C          63.5660   81.8568   10.9397 C.3     1  UNL1        0.0162
     20 C          62.4636   80.0373   13.0549 C.3     1  UNL1        0.0162
     21 C          62.8223   79.8704   10.9708 C.3     1  UNL1        0.4035
     22 F          62.6298   78.7937    9.9443 F       1  UNL1       -0.1696
     23 F          63.1371   80.8525    9.8816 F       1  UNL1       -0.1696
     24 F          62.5076   78.8882   12.0600 F       1  UNL1       -0.1696
     25 O          64.3069   92.4120   10.6003 O.3     1  UNL1       -0.4360
     26 C          67.4363   92.2293   15.0075 C.ar    1  UNL1        0.1739
     27 C          68.3703   92.2280   13.8338 C.ar    1  UNL1        0.0593
     28 C          67.8214   92.2733   12.4385 C.ar    1  UNL1        0.0908
     29 N          68.7554   92.2720   11.2648 N.ar    1  UNL1       -0.2237
     30 C          68.2065   92.3174    9.8696 C.ar    1  UNL1        0.2015
     31 N          66.7237   92.3640    9.6481 N.ar    1  UNL1       -0.1890
     32 C          65.7897   92.3654   10.8218 C.ar    1  UNL1        0.2325
     33 C          66.3386   92.3200   12.2170 C.ar    1  UNL1        0.0745
     34 C          65.4046   92.3213   13.3908 C.ar    1  UNL1        0.0462
     35 C          65.9535   92.2760   14.7860 C.ar    1  UNL1        0.1726
     36 C          69.4603   92.3275   16.6335 C.3     1  UNL1        0.2526
     37 O          67.9851   92.1840   16.4028 O.3     1  UNL1       -0.4683
     38 O          65.0195   92.2773   15.9598 O.3     1  UNL1       -0.4684
     39 C          63.9723   91.2108   16.0863 C.3     1  UNL1        0.2526
@<TRIPOS>BOND
     1    36    37    1
     2    37    26    1
     3    26    27   ar
     4    27    28   ar
     5    28    29   ar
     6    29    30   ar
     7    30    31   ar
     8    31    32   ar
     9    32    25    1
    10    25     1    1
    11     1     2   ar
    12     2     3   ar
    13     3     4   ar
    14     4     5   ar
    15     5     7    1
    16     7     8   am
    17     8     9    2
    18     8    10   am
    19    10    13    1
    20    13    14   ar
    21    14    15   ar
    22    15    18    1
    23    18    19    1
    24    18    20    1
    25    18    21    1
    26    21    22    1
    27    21    23    1
    28    21    24    1
    29    15    16   ar
    30    16    17   ar
    31     5     6   ar
    32    32    33   ar
    33    33    34   ar
    34    34    35   ar
    35    35    38    1
    36    38    39    1
    37    35    26   ar
    38    33    28   ar
    39     6     1   ar
    40    17    13   ar
    41     7    11    1
    42    10    12    1
@<TRIPOS>MOLECULE
*****
 39 42 0 0 0
SMALL
GASTEIGER

@<TRIPOS>ATOM
      1 C          62.4157   88.9095   11.3308 C.ar    1  UNL1        0.1484
      2 C          62.7229   87.5421   11.8657 C.ar    1  UNL1        0.0376
      3 C          61.9867   86.3471   11.3367 C.ar    1  UNL1        0.0044
      4 C          60.9434   86.5193   10.2728 C.ar    1  UNL1        0.0149
      5 C          60.6363   87.8866    9.7379 C.ar    1  UNL1        0.0546
      6 C          61.3724   89.0817   10.2669 C.ar    1  UNL1        0.0522
      7 N          59.5929   88.0588    8.6741 N.am    1  UNL1       -0.2679
      8 C          59.7358   89.1481    7.6528 C.2     1  UNL1        0.3093
      9 O          60.9221   90.0653    7.6954 O.2     1  UNL1       -0.2521
     10 N          58.6925   89.3204    6.5890 N.am    1  UNL1       -0.2508
     11 H          58.8144   87.4569    8.6461 H       1  UNL1        0.1564
     12 H          57.9139   88.7184    6.5610 H       1  UNL1        0.1579
     13 C          58.8354   90.4097    5.5677 C.ar    1  UNL1        0.1771
     14 C          60.0830   90.7454    4.8055 C.ar    1  UNL1        0.0737
     15 C          59.7745   91.8978    3.8960 C.ar    1  UNL1        0.1629
     16 O          58.3363   92.2743    4.0963 O.2     1  UNL1       -0.3563
     17 N          57.7560   91.3546    5.1295 N.ar    1  UNL1       -0.0621
     18 C          60.7355   92.5578    2.9522 C.3     1  UNL1        0.1409
     19 C          59.5979   93.2941    2.3089 C.3     1  UNL1        0.0162
     20 C          61.8730   91.8216    3.5954 C.3     1  UNL1        0.0162
     21 C          61.6964   93.2178    2.0083 C.3     1  UNL1        0.4035
     22 F          62.6573   93.8778    1.0644 F       1  UNL1       -0.1696
     23 F          60.9893   94.5263    2.2033 F       1  UNL1       -0.1696
     24 F          62.4035   91.9094    1.8132 F       1  UNL1       -0.1696
     25 O          63.1519   90.1045   11.8598 O.3     1  UNL1       -0.4360
     26 C          66.5229   93.0709   14.8742 C.ar    1  UNL1        0.1739
     27 C          65.6753   92.2955   15.8387 C.ar    1  UNL1        0.0593
     28 C          64.6206   91.3600   15.3263 C.ar    1  UNL1        0.0908
     29 N          63.7730   90.5847   16.2908 N.ar    1  UNL1       -0.2237
     30 C          62.7184   89.6493   15.7783 C.ar    1  UNL1        0.2015
     31 N          62.5113   89.4892   14.3013 N.ar    1  UNL1       -0.1890
     32 C          63.3589   90.2646   13.3368 C.ar    1  UNL1        0.2325
     33 C          64.4136   91.2000   13.8493 C.ar    1  UNL1        0.0745
     34 C          65.2613   91.9754   12.8847 C.ar    1  UNL1        0.0462
     35 C          66.3159   92.9108   13.3972 C.ar    1  UNL1        0.1726
     36 C          68.9107   93.4701   15.8173 C.3     1  UNL1        0.2526
     37 O          67.5776   94.0064   15.3867 O.3     1  UNL1       -0.4683
     38 O          67.1636   93.6863   12.4327 O.3     1  UNL1       -0.4684
     39 C          66.5307   94.3582   11.2504 C.3     1  UNL1        0.2526
@<TRIPOS>BOND
     1    36    37    1
     2    37    26    1
     3    26    27   ar
     4    27    28   ar
     5    28    29   ar
     6    29    30   ar
     7    30    31   ar
     8    31    32   ar
     9    32    25    1
    10    25     1    1
    11     1     2   ar
    12     2     3   ar
    13     3     4   ar
    14     4     5   ar
    15     5     7    1
    16     7     8   am
    17     8     9    2
    18     8    10   am
    19    10    13    1
    20    13    14   ar
    21    14    15   ar
    22    15    18    1
    23    18    19    1
    24    18    20    1
    25    18    21    1
    26    21    22    1
    27    21    23    1
    28    21    24    1
    29    15    16   ar
    30    16    17   ar
    31     5     6   ar
    32    32    33   ar
    33    33    34   ar
    34    34    35   ar
    35    35    38    1
    36    38    39    1
    37    35    26   ar
    38    33    28   ar
    39     6     1   ar
    40    17    13   ar
    41     7    11    1
    42    10    12    1
