@<TRIPOS>MOLECULE
*****
 25 26 0 0 0
SMALL
GASTEIGER

@<TRIPOS>ATOM
      1 N          63.0588   91.0297   14.0602 N.am    1  UNL1       -0.3008
      2 C          62.9794   89.8860   13.0929 C.2     1  UNL1        0.2427
      3 O          63.8397   88.6736   13.2928 O.2     1  UNL1       -0.2732
      4 H          62.4941   91.8254   13.9290 H       1  UNL1        0.1497
      5 C          63.9984   90.9610   15.2275 C.3     1  UNL1        0.0941
      6 C          65.3818   91.5289   15.1111 C.ar    1  UNL1       -0.0045
      7 C          66.2005   91.2637   13.8824 C.ar    1  UNL1       -0.0027
      8 C          67.5840   91.8316   13.7660 C.ar    1  UNL1       -0.0003
      9 C          68.1487   92.6648   14.8782 C.ar    1  UNL1       -0.0000
     10 C          67.3300   92.9301   16.1067 C.ar    1  UNL1       -0.0003
     11 C          65.9466   92.3621   16.2232 C.ar    1  UNL1       -0.0027
     12 C          63.1579   88.8780   16.5329 C.3     1  UNL1        0.0021
     13 C          63.5546   90.3244   16.5111 C.3     1  UNL1        0.0241
     14 C          62.0399   89.9548   11.9257 C.3     1  UNL1        0.1759
     15 N          62.1937   88.9970   10.7816 N.am    1  UNL1       -0.2931
     16 C          61.1710   87.9223   10.5604 C.2     1  UNL1        0.2462
     17 O          59.9944   87.8053   11.4833 O.2     1  UNL1       -0.2701
     18 H          62.9660   89.0738   10.1758 H       1  UNL1        0.1502
     19 C          61.3249   86.9645    9.4162 C.ar    1  UNL1        0.0535
     20 C          60.1613   86.6822    8.5127 C.ar    1  UNL1        0.0068
     21 C          60.3153   85.7245    7.3686 C.ar    1  UNL1        0.0298
     22 C          61.6328   85.0490    7.1280 C.ar    1  UNL1        0.1401
     23 F          61.7867   84.0912    5.9839 F       1  UNL1       -0.2042
     24 C          62.7964   85.3313    8.0315 C.ar    1  UNL1        0.0298
     25 C          62.6424   86.2890    9.1756 C.ar    1  UNL1        0.0068
@<TRIPOS>BOND
     1    12    13    1
     2    13     5    1
     3     5     1    1
     4     1     2   am
     5     2     3    2
     6     2    14    1
     7    14    15    1
     8    15    16   am
     9    16    17    2
    10    16    19    1
    11    19    20   ar
    12    20    21   ar
    13    21    22   ar
    14    22    23    1
    15    22    24   ar
    16    24    25   ar
    17     5     6    1
    18     6     7   ar
    19     7     8   ar
    20     8     9   ar
    21     9    10   ar
    22    10    11   ar
    23    25    19   ar
    24    11     6   ar
    25     1     4    1
    26    15    18    1
@<TRIPOS>MOLECULE
*****
 25 26 0 0 0
SMALL
GASTEIGER

@<TRIPOS>ATOM
      1 N          64.2721   88.4992   14.8889 N.am    1  UNL1       -0.3008
      2 C          63.2576   88.2770   15.9712 C.2     1  UNL1        0.2427
      3 O          62.2567   89.3472   16.2921 O.2     1  UNL1       -0.2732
      4 H          64.9290   87.7969   14.6783 H       1  UNL1        0.1497
      5 C          64.2857   89.7916   14.1275 C.3     1  UNL1        0.0941
      6 C          63.6840   89.8600   12.7552 C.ar    1  UNL1       -0.0045
      7 C          62.9840   88.6631   12.1827 C.ar    1  UNL1       -0.0027
      8 C          62.3823   88.7315   10.8104 C.ar    1  UNL1       -0.0003
      9 C          62.4805   89.9967   10.0106 C.ar    1  UNL1       -0.0000
     10 C          63.1804   91.1935   10.5831 C.ar    1  UNL1       -0.0003
     11 C          63.7821   91.1251   11.9554 C.ar    1  UNL1       -0.0027
     12 C          66.3570   91.3081   14.5271 C.3     1  UNL1        0.0021
     13 C          64.9011   91.0156   14.7385 C.3     1  UNL1        0.0241
     14 C          63.2440   86.9847   16.7325 C.3     1  UNL1        0.1759
     15 N          62.8965   85.7049   16.0315 N.am    1  UNL1       -0.2931
     16 C          63.8926   85.0566   15.1163 C.2     1  UNL1        0.2462
     17 O          65.2362   85.6882   14.9021 O.2     1  UNL1       -0.2701
     18 H          62.0147   85.2903   16.1721 H       1  UNL1        0.1502
     19 C          63.5451   83.7768   14.4153 C.ar    1  UNL1        0.0535
     20 C          64.3625   83.3170   13.2447 C.ar    1  UNL1        0.0068
     21 C          64.0150   82.0372   12.5438 C.ar    1  UNL1        0.0298
     22 C          62.8501   81.2172   13.0135 C.ar    1  UNL1        0.1401
     23 F          62.5026   79.9374   12.3125 F       1  UNL1       -0.2042
     24 C          62.0327   81.6770   14.1841 C.ar    1  UNL1        0.0298
     25 C          62.3802   82.9568   14.8850 C.ar    1  UNL1        0.0068
@<TRIPOS>BOND
     1    12    13    1
     2    13     5    1
     3     5     1    1
     4     1     2   am
     5     2     3    2
     6     2    14    1
     7    14    15    1
     8    15    16   am
     9    16    17    2
    10    16    19    1
    11    19    20   ar
    12    20    21   ar
    13    21    22   ar
    14    22    23    1
    15    22    24   ar
    16    24    25   ar
    17     5     6    1
    18     6     7   ar
    19     7     8   ar
    20     8     9   ar
    21     9    10   ar
    22    10    11   ar
    23    25    19   ar
    24    11     6   ar
    25     1     4    1
    26    15    18    1
@<TRIPOS>MOLECULE
*****
 25 26 0 0 0
SMALL
GASTEIGER

@<TRIPOS>ATOM
      1 N          61.8245   88.0780    9.8322 N.am    1  UNL1       -0.3008
      2 C          60.9520   88.6634   10.9027 C.2     1  UNL1        0.2427
      3 O          59.8966   87.8201   11.5546 O.2     1  UNL1       -0.2732
      4 H          62.5172   88.6315    9.4044 H       1  UNL1        0.1497
      5 C          61.6415   86.6492    9.4134 C.3     1  UNL1        0.0941
      6 C          62.4040   85.5605   10.1084 C.ar    1  UNL1       -0.0045
      7 C          62.3530   85.4456   11.6032 C.ar    1  UNL1       -0.0027
      8 C          63.1155   84.3568   12.2983 C.ar    1  UNL1       -0.0003
      9 C          63.9291   83.3829   11.4985 C.ar    1  UNL1       -0.0000
     10 C          63.9802   83.4978   10.0038 C.ar    1  UNL1       -0.0003
     11 C          63.2176   84.5865    9.3088 C.ar    1  UNL1       -0.0027
     12 C          59.3637   86.9930    8.2120 C.3     1  UNL1        0.0021
     13 C          60.6960   86.3093    8.2997 C.3     1  UNL1        0.0241
     14 C          61.1351   90.0921   11.3214 C.3     1  UNL1        0.1759
     15 N          62.2841   90.4726   12.2075 N.am    1  UNL1       -0.2931
     16 C          63.4619   91.2044   11.6355 C.2     1  UNL1        0.2462
     17 O          63.4908   91.5556   10.1774 O.2     1  UNL1       -0.2701
     18 H          62.2651   90.2422   13.1644 H       1  UNL1        0.1502
     19 C          64.6109   91.5850   12.5215 C.ar    1  UNL1        0.0535
     20 C          64.8377   90.8536   13.8113 C.ar    1  UNL1        0.0068
     21 C          65.9866   91.2342   14.6973 C.ar    1  UNL1        0.0298
     22 C          66.9088   92.3462   14.2934 C.ar    1  UNL1        0.1401
     23 F          68.0578   92.7268   15.1795 F       1  UNL1       -0.2042
     24 C          66.6821   93.0776   13.0036 C.ar    1  UNL1        0.0298
     25 C          65.5331   92.6970   12.1177 C.ar    1  UNL1        0.0068
@<TRIPOS>BOND
     1    12    13    1
     2    13     5    1
     3     5     1    1
     4     1     2   am
     5     2     3    2
     6     2    14    1
     7    14    15    1
     8    15    16   am
     9    16    17    2
    10    16    19    1
    11    19    20   ar
    12    20    21   ar
    13    21    22   ar
    14    22    23    1
    15    22    24   ar
    16    24    25   ar
    17     5     6    1
    18     6     7   ar
    19     7     8   ar
    20     8     9   ar
    21     9    10   ar
    22    10    11   ar
    23    25    19   ar
    24    11     6   ar
    25     1     4    1
    26    15    18    1
@<TRIPOS>MOLECULE
*****
 25 26 0 0 0
SMALL
GASTEIGER

@<TRIPOS>ATOM
      1 N          65.0098   90.6720   15.1449 N.am    1  UNL1       -0.3008
      2 C          63.8573   90.7486   16.1018 C.2     1  UNL1        0.2427
      3 O          63.4263   92.0757   16.6522 O.2     1  UNL1       -0.2732
      4 H          65.2926   89.8010   14.7836 H       1  UNL1        0.1497
      5 C          65.7314   91.9227   14.7383 C.3     1  UNL1        0.0941
      6 C          65.6387   92.4161   13.3248 C.ar    1  UNL1       -0.0045
      7 C          66.3988   93.6397   12.9063 C.ar    1  UNL1       -0.0027
      8 C          66.3062   94.1332   11.4928 C.ar    1  UNL1       -0.0003
      9 C          65.4534   93.4031   10.4979 C.ar    1  UNL1       -0.0000
     10 C          64.6934   92.1795   10.9164 C.ar    1  UNL1       -0.0003
     11 C          64.7861   91.6860   12.3299 C.ar    1  UNL1       -0.0027
     12 C          67.9664   92.2807   16.0135 C.3     1  UNL1        0.0021
     13 C          66.5456   92.6798   15.7451 C.3     1  UNL1        0.0241
     14 C          63.1357   89.4980   16.5084 C.3     1  UNL1        0.1759
     15 N          63.3794   88.2168   15.7671 N.am    1  UNL1       -0.2931
     16 C          63.2203   86.9015   16.4704 C.2     1  UNL1        0.2462
     17 O          62.8176   86.8673   17.9149 O.2     1  UNL1       -0.2701
     18 H          63.6437   88.2393   14.8190 H       1  UNL1        0.1502
     19 C          63.4639   85.6204   15.7291 C.ar    1  UNL1        0.0535
     20 C          62.4877   84.4878   15.8480 C.ar    1  UNL1        0.0068
     21 C          62.7314   83.2067   15.1068 C.ar    1  UNL1        0.0298
     22 C          63.9513   83.0583   14.2466 C.ar    1  UNL1        0.1401
     23 F          64.1949   81.7771   13.5054 F       1  UNL1       -0.2042
     24 C          64.9275   84.1909   14.1277 C.ar    1  UNL1        0.0298
     25 C          64.6838   85.4719   14.8690 C.ar    1  UNL1        0.0068
@<TRIPOS>BOND
     1    12    13    1
     2    13     5    1
     3     5     1    1
     4     1     2   am
     5     2     3    2
     6     2    14    1
     7    14    15    1
     8    15    16   am
     9    16    17    2
    10    16    19    1
    11    19    20   ar
    12    20    21   ar
    13    21    22   ar
    14    22    23    1
    15    22    24   ar
    16    24    25   ar
    17     5     6    1
    18     6     7   ar
    19     7     8   ar
    20     8     9   ar
    21     9    10   ar
    22    10    11   ar
    23    25    19   ar
    24    11     6   ar
    25     1     4    1
    26    15    18    1
@<TRIPOS>MOLECULE
*****
 25 26 0 0 0
SMALL
GASTEIGER

@<TRIPOS>ATOM
      1 N          62.3745   88.0233   10.9698 N.am    1  UNL1       -0.3008
      2 C          61.1987   88.8566   11.3858 C.2     1  UNL1        0.2427
      3 O          59.8555   88.2166   11.5756 O.2     1  UNL1       -0.2732
      4 H          63.2561   88.4434   10.8453 H       1  UNL1        0.1497
      5 C          62.2071   86.5498   10.7437 C.3     1  UNL1        0.0941
      6 C          61.9214   86.0302    9.3659 C.ar    1  UNL1       -0.0045
      7 C          60.5536   86.1925    8.7718 C.ar    1  UNL1       -0.0027
      8 C          60.2679   85.6729    7.3940 C.ar    1  UNL1       -0.0003
      9 C          61.3501   84.9910    6.6102 C.ar    1  UNL1       -0.0000
     10 C          62.7178   84.8288    7.2043 C.ar    1  UNL1       -0.0003
     11 C          63.0035   85.3484    8.5822 C.ar    1  UNL1       -0.0027
     12 C          62.6415   84.1517   11.6435 C.3     1  UNL1        0.0021
     13 C          62.3253   85.5961   11.8954 C.3     1  UNL1        0.0241
     14 C          61.3662   90.3299   11.6119 C.3     1  UNL1        0.1759
     15 N          62.7268   90.8958   11.8923 N.am    1  UNL1       -0.2931
     16 C          63.3606   90.6938   13.2367 C.2     1  UNL1        0.2462
     17 O          62.6338   89.9259   14.3007 O.2     1  UNL1       -0.2701
     18 H          63.2038   91.3999   11.1940 H       1  UNL1        0.1502
     19 C          64.7212   91.2597   13.5172 C.ar    1  UNL1        0.0535
     20 C          65.4611   90.8542   14.7573 C.ar    1  UNL1        0.0068
     21 C          66.8216   91.4201   15.0377 C.ar    1  UNL1        0.0298
     22 C          67.4422   92.3915   14.0779 C.ar    1  UNL1        0.1401
     23 F          68.8028   92.9574   14.3584 F       1  UNL1       -0.2042
     24 C          66.7024   92.7970   12.8378 C.ar    1  UNL1        0.0298
     25 C          65.3418   92.2311   12.5574 C.ar    1  UNL1        0.0068
@<TRIPOS>BOND
     1    12    13    1
     2    13     5    1
     3     5     1    1
     4     1     2   am
     5     2     3    2
     6     2    14    1
     7    14    15    1
     8    15    16   am
     9    16    17    2
    10    16    19    1
    11    19    20   ar
    12    20    21   ar
    13    21    22   ar
    14    22    23    1
    15    22    24   ar
    16    24    25   ar
    17     5     6    1
    18     6     7   ar
    19     7     8   ar
    20     8     9   ar
    21     9    10   ar
    22    10    11   ar
    23    25    19   ar
    24    11     6   ar
    25     1     4    1
    26    15    18    1
@<TRIPOS>MOLECULE
*****
 25 26 0 0 0
SMALL
GASTEIGER

@<TRIPOS>ATOM
      1 N          64.2448   88.8381   14.4603 N.am    1  UNL1       -0.3008
      2 C          63.3567   88.6123   15.6477 C.2     1  UNL1        0.2427
      3 O          62.3345   89.6426   16.0266 O.2     1  UNL1       -0.2732
      4 H          64.9157   88.1619   14.2117 H       1  UNL1        0.1497
      5 C          64.1109   90.0944   13.6516 C.3     1  UNL1        0.0941
      6 C          65.0126   91.2617   13.9244 C.ar    1  UNL1       -0.0045
      7 C          65.4809   91.5369   15.3226 C.ar    1  UNL1       -0.0027
      8 C          66.3826   92.7042   15.5954 C.ar    1  UNL1       -0.0003
      9 C          66.8160   93.5962   14.4700 C.ar    1  UNL1       -0.0000
     10 C          66.3477   93.3209   13.0718 C.ar    1  UNL1       -0.0003
     11 C          65.4460   92.1536   12.7990 C.ar    1  UNL1       -0.0027
     12 C          62.7735   88.9848   11.7203 C.3     1  UNL1        0.0021
     13 C          63.0752   90.1834   12.5702 C.3     1  UNL1        0.0241
     14 C          63.4907   87.3561   16.4564 C.3     1  UNL1        0.1759
     15 N          63.0863   86.0375   15.8663 N.am    1  UNL1       -0.2931
     16 C          64.0520   85.2700   15.0130 C.2     1  UNL1        0.2462
     17 O          65.4221   85.8209   14.7496 O.2     1  UNL1       -0.2701
     18 H          62.1871   85.6760   16.0391 H       1  UNL1        0.1502
     19 C          63.6476   83.9515   14.4229 C.ar    1  UNL1        0.0535
     20 C          62.4494   83.2258   14.9591 C.ar    1  UNL1        0.0068
     21 C          62.0451   81.9073   14.3690 C.ar    1  UNL1        0.0298
     22 C          62.8390   81.3146   13.2428 C.ar    1  UNL1        0.1401
     23 F          62.4347   79.9961   12.6527 F       1  UNL1       -0.2042
     24 C          64.0373   82.0403   12.7066 C.ar    1  UNL1        0.0298
     25 C          64.4416   83.3588   13.2967 C.ar    1  UNL1        0.0068
@<TRIPOS>BOND
     1    12    13    1
     2    13     5    1
     3     5     1    1
     4     1     2   am
     5     2     3    2
     6     2    14    1
     7    14    15    1
     8    15    16   am
     9    16    17    2
    10    16    19    1
    11    19    20   ar
    12    20    21   ar
    13    21    22   ar
    14    22    23    1
    15    22    24   ar
    16    24    25   ar
    17     5     6    1
    18     6     7   ar
    19     7     8   ar
    20     8     9   ar
    21     9    10   ar
    22    10    11   ar
    23    25    19   ar
    24    11     6   ar
    25     1     4    1
    26    15    18    1
@<TRIPOS>MOLECULE
*****
 25 26 0 0 0
SMALL
GASTEIGER

@<TRIPOS>ATOM
      1 N          63.6924   83.9663   12.8236 N.am    1  UNL1       -0.3008
      2 C          62.8737   83.2992   13.8887 C.2     1  UNL1        0.2427
      3 O          61.9799   82.1472   13.5364 O.2     1  UNL1       -0.2732
      4 H          64.2790   84.7224   13.0549 H       1  UNL1        0.1497
      5 C          63.6175   83.4815   11.4061 C.3     1  UNL1        0.0941
      6 C          62.9832   84.3402   10.3523 C.ar    1  UNL1       -0.0045
      7 C          61.8637   85.2699   10.7162 C.ar    1  UNL1       -0.0027
      8 C          61.2294   86.1286    9.6624 C.ar    1  UNL1       -0.0003
      9 C          61.7147   86.0576    8.2448 C.ar    1  UNL1       -0.0000
     10 C          62.8342   85.1278    7.8810 C.ar    1  UNL1       -0.0003
     11 C          63.4684   84.2692    8.9348 C.ar    1  UNL1       -0.0027
     12 C          63.2597   81.0429   10.5846 C.3     1  UNL1        0.0021
     13 C          64.1767   82.1381   11.0423 C.3     1  UNL1        0.0241
     14 C          62.9487   83.7840   15.3062 C.3     1  UNL1        0.1759
     15 N          62.8564   85.2515   15.6028 N.am    1  UNL1       -0.2931
     16 C          64.0021   86.1586   15.2644 C.2     1  UNL1        0.2462
     17 O          65.2401   85.5982   14.6293 O.2     1  UNL1       -0.2701
     18 H          62.0439   85.6194   16.0196 H       1  UNL1        0.1502
     19 C          63.9099   87.6261   15.5610 C.ar    1  UNL1        0.0535
     20 C          63.1990   88.0988   16.7943 C.ar    1  UNL1        0.0068
     21 C          63.1068   89.5662   17.0909 C.ar    1  UNL1        0.0298
     22 C          63.7255   90.5610   16.1541 C.ar    1  UNL1        0.1401
     23 F          63.6333   92.0286   16.4507 F       1  UNL1       -0.2042
     24 C          64.4364   90.0884   14.9208 C.ar    1  UNL1        0.0298
     25 C          64.5286   88.6209   14.6242 C.ar    1  UNL1        0.0068
@<TRIPOS>BOND
     1    12    13    1
     2    13     5    1
     3     5     1    1
     4     1     2   am
     5     2     3    2
     6     2    14    1
     7    14    15    1
     8    15    16   am
     9    16    17    2
    10    16    19    1
    11    19    20   ar
    12    20    21   ar
    13    21    22   ar
    14    22    23    1
    15    22    24   ar
    16    24    25   ar
    17     5     6    1
    18     6     7   ar
    19     7     8   ar
    20     8     9   ar
    21     9    10   ar
    22    10    11   ar
    23    25    19   ar
    24    11     6   ar
    25     1     4    1
    26    15    18    1
@<TRIPOS>MOLECULE
*****
 25 26 0 0 0
SMALL
GASTEIGER

@<TRIPOS>ATOM
      1 N          62.3373   90.1454   13.8981 N.am    1  UNL1       -0.3008
      2 C          62.7855   90.2171   12.4684 C.2     1  UNL1        0.2427
      3 O          64.2331   90.0249   12.1257 O.2     1  UNL1       -0.2732
      4 H          61.3872   90.2715   14.1230 H       1  UNL1        0.1497
      5 C          63.3368   89.8815   14.9851 C.3     1  UNL1        0.0941
      6 C          63.5287   88.4878   15.5053 C.ar    1  UNL1       -0.0045
      7 C          64.3373   87.4986   14.7193 C.ar    1  UNL1       -0.0027
      8 C          64.5292   86.1048   15.2395 C.ar    1  UNL1       -0.0003
      9 C          63.9124   85.7002   16.5456 C.ar    1  UNL1       -0.0000
     10 C          63.1039   86.6894   17.3316 C.ar    1  UNL1       -0.0003
     11 C          62.9120   88.0832   16.8114 C.ar    1  UNL1       -0.0027
     12 C          65.4147   91.4373   14.8775 C.3     1  UNL1        0.0021
     13 C          64.1443   91.0114   15.5519 C.3     1  UNL1        0.0241
     14 C          61.7860   90.4810   11.3815 C.3     1  UNL1        0.1759
     15 N          61.6326   89.5070   10.2511 N.am    1  UNL1       -0.2931
     16 C          61.7313   88.0332   10.5122 C.2     1  UNL1        0.2462
     17 O          61.9833   87.5334   11.9038 O.2     1  UNL1       -0.2701
     18 H          61.4672   89.8351    9.3377 H       1  UNL1        0.1502
     19 C          61.5779   87.0593    9.3817 C.ar    1  UNL1        0.0535
     20 C          62.7352   86.1974    8.9721 C.ar    1  UNL1        0.0068
     21 C          62.5817   85.2235    7.8416 C.ar    1  UNL1        0.0298
     22 C          61.2710   85.1115    7.1209 C.ar    1  UNL1        0.1401
     23 F          61.1177   84.1375    5.9904 F       1  UNL1       -0.2042
     24 C          60.1138   85.9733    7.5305 C.ar    1  UNL1        0.0298
     25 C          60.2672   86.9472    8.6609 C.ar    1  UNL1        0.0068
@<TRIPOS>BOND
     1    12    13    1
     2    13     5    1
     3     5     1    1
     4     1     2   am
     5     2     3    2
     6     2    14    1
     7    14    15    1
     8    15    16   am
     9    16    17    2
    10    16    19    1
    11    19    20   ar
    12    20    21   ar
    13    21    22   ar
    14    22    23    1
    15    22    24   ar
    16    24    25   ar
    17     5     6    1
    18     6     7   ar
    19     7     8   ar
    20     8     9   ar
    21     9    10   ar
    22    10    11   ar
    23    25    19   ar
    24    11     6   ar
    25     1     4    1
    26    15    18    1
@<TRIPOS>MOLECULE
*****
 25 26 0 0 0
SMALL
GASTEIGER

@<TRIPOS>ATOM
      1 N          65.1035   91.5620   13.1346 N.am    1  UNL1       -0.3008
      2 C          64.1028   91.2849   12.0521 C.2     1  UNL1        0.2427
      3 O          64.0843   92.1308   10.8135 O.2     1  UNL1       -0.2732
      4 H          65.1156   91.0068   13.9475 H       1  UNL1        0.1497
      5 C          66.0857   92.6849   12.9785 C.3     1  UNL1        0.0941
      6 C          66.7454   92.9255   11.6530 C.ar    1  UNL1       -0.0045
      7 C          67.7003   91.9118   11.0956 C.ar    1  UNL1       -0.0027
      8 C          68.3600   92.1523    9.7701 C.ar    1  UNL1       -0.0003
      9 C          68.0648   93.4065    9.0020 C.ar    1  UNL1       -0.0000
     10 C          67.1100   94.4201    9.5595 C.ar    1  UNL1       -0.0003
     11 C          66.4502   94.1796   10.8849 C.ar    1  UNL1       -0.0027
     12 C          67.5993   93.2664   15.0084 C.3     1  UNL1        0.0021
     13 C          66.4081   93.5673   14.1478 C.3     1  UNL1        0.0241
     14 C          63.1206   90.1620   12.2082 C.3     1  UNL1        0.1759
     15 N          62.9184   89.1817   11.0910 N.am    1  UNL1       -0.2931
     16 C          61.5839   88.5229   10.9036 C.2     1  UNL1        0.2462
     17 O          60.4516   88.8444   11.8335 O.2     1  UNL1       -0.2701
     18 H          63.6615   88.9707   10.4807 H       1  UNL1        0.1502
     19 C          61.3816   87.5426    9.7864 C.ar    1  UNL1        0.0535
     20 C          62.5008   86.6323    9.3755 C.ar    1  UNL1        0.0068
     21 C          62.2985   85.6521    8.2584 C.ar    1  UNL1        0.0298
     22 C          60.9770   85.5821    7.5520 C.ar    1  UNL1        0.1401
     23 F          60.7748   84.6018    6.4348 F       1  UNL1       -0.2042
     24 C          59.8579   86.4924    7.9629 C.ar    1  UNL1        0.0298
     25 C          60.0602   87.4726    9.0801 C.ar    1  UNL1        0.0068
@<TRIPOS>BOND
     1    12    13    1
     2    13     5    1
     3     5     1    1
     4     1     2   am
     5     2     3    2
     6     2    14    1
     7    14    15    1
     8    15    16   am
     9    16    17    2
    10    16    19    1
    11    19    20   ar
    12    20    21   ar
    13    21    22   ar
    14    22    23    1
    15    22    24   ar
    16    24    25   ar
    17     5     6    1
    18     6     7   ar
    19     7     8   ar
    20     8     9   ar
    21     9    10   ar
    22    10    11   ar
    23    25    19   ar
    24    11     6   ar
    25     1     4    1
    26    15    18    1
