@<TRIPOS>MOLECULE
*****
 25 28 0 0 0
SMALL
GASTEIGER

@<TRIPOS>ATOM
      1 C          62.4709   89.5336   11.1367 C.2     1  UNL1        0.0958
      2 C          62.5243   90.6002   10.0833 C.2     1  UNL1        0.1049
      3 N          63.4698   91.6666   10.5510 N.2     1  UNL1       -0.2475
      4 C          64.0009   91.2591   11.8933 C.2     1  UNL1        0.0668
      5 C          64.9668   91.9181   12.8328 C.3     1  UNL1        0.1097
      6 C          65.3154   91.2588   14.1342 C.2     1  UNL1        0.1277
      7 C          64.6980   89.9406   14.4962 C.2     1  UNL1        0.0330
      8 C          63.7321   89.2816   13.5568 C.2     1  UNL1        0.0042
      9 C          63.3835   89.9408   12.2553 C.2     1  UNL1        0.0218
     10 O          60.2907   88.2448   11.7159 O.2     1  UNL1       -0.2448
     11 C          61.6493   88.2799   11.0812 C.2     1  UNL1        0.3428
     12 O          62.1862   87.0612   10.3908 O.3     1  UNL1       -0.4454
     13 C          61.7187   85.6974   10.8050 C.3     1  UNL1        0.2087
     14 C          62.7184   84.6135   11.0802 C.3     1  UNL1        0.0445
     15 C          63.0314   84.2232   12.4943 C.3     1  UNL1        0.0210
     16 C          64.0311   83.1393   12.7693 C.3     1  UNL1        0.0722
     17 N          64.7178   82.4455   11.6304 N.3     1  UNL1       -0.2727
     18 C          64.4047   82.8358   10.2163 C.3     1  UNL1        0.0722
     19 C          63.4050   83.9198    9.9412 C.3     1  UNL1        0.0210
     20 C          64.1773   83.0336   11.4301 C.3     1  UNL1        0.0722
     21 C          63.2733   84.0137   11.1813 C.3     1  UNL1        0.0210
     22 O          66.2814   91.9178   15.0738 O.2     1  UNL1       -0.4277
     23 C          67.7565   91.8297   14.8164 C.3     1  UNL1        0.5084
     24 F          68.7267   91.9978   15.9479 F       1  UNL1       -0.1550
     25 F          68.2614   91.5734   13.4273 F       1  UNL1       -0.1550
@<TRIPOS>BOND
     1    10    11    2
     2    11    12    1
     3    12    13    1
     4    13    14    1
     5    14    15    1
     6    15    16    1
     7    16    17    1
     8    17    18    1
     9    18    19    1
    10    17    20    1
    11    20    21    1
    12    11     1    1
    13     1     2    2
    14     2     3    1
    15     3     4    2
    16     4     5    1
    17     5     6    1
    18     6    22    1
    19    22    23    1
    20    23    24    1
    21    23    25    1
    22     6     7    2
    23     7     8    1
    24     8     9    2
    25    19    14    1
    26     9     1    1
    27    21    14    1
    28     9     4    1
@<TRIPOS>MOLECULE
*****
 25 28 0 0 0
SMALL
GASTEIGER

@<TRIPOS>ATOM
      1 C          63.6801   83.6627   13.1903 C.2     1  UNL1        0.0958
      2 C          64.5248   82.5076   12.7405 C.2     1  UNL1        0.1049
      3 N          64.5503   82.5085   11.2407 N.2     1  UNL1       -0.2475
      4 C          63.7215   83.6641   10.7636 C.2     1  UNL1        0.0668
      5 C          63.3870   84.1590    9.3877 C.3     1  UNL1        0.1097
      6 C          62.5147   85.3672    9.2168 C.2     1  UNL1        0.1277
      7 C          61.9769   86.0805   10.4217 C.2     1  UNL1        0.0330
      8 C          62.3113   85.5856   11.7976 C.2     1  UNL1        0.0042
      9 C          63.1836   84.3774   11.9686 C.2     1  UNL1        0.0218
     10 O          63.3337   82.9772   15.6723 O.2     1  UNL1       -0.2448
     11 C          63.3838   84.0372   14.6123 C.2     1  UNL1        0.3428
     12 O          63.1377   85.4720   14.9742 O.3     1  UNL1       -0.4454
     13 C          64.2815   86.4414   15.0179 C.3     1  UNL1        0.2087
     14 C          64.0131   87.9146   15.1052 C.3     1  UNL1        0.0445
     15 C          63.4820   88.5061   16.3772 C.3     1  UNL1        0.0210
     16 C          63.2136   89.9793   16.4644 C.3     1  UNL1        0.0722
     17 N          63.4764   90.8611   15.2797 N.3     1  UNL1       -0.2727
     18 C          64.0075   90.2695   14.0077 C.3     1  UNL1        0.0722
     19 C          64.2759   88.7962   13.9204 C.3     1  UNL1        0.0210
     20 C          63.6388   90.0595   15.1842 C.3     1  UNL1        0.0722
     21 C          63.8815   88.7274   15.1052 C.3     1  UNL1        0.0210
     22 O          62.1802   85.8622    7.8408 O.2     1  UNL1       -0.4277
     23 C          61.0846   85.2064    7.0536 C.3     1  UNL1        0.5084
     24 F          59.6526   85.5659    7.3180 F       1  UNL1       -0.1550
     25 F          61.4212   84.1910    6.0020 F       1  UNL1       -0.1550
@<TRIPOS>BOND
     1    10    11    2
     2    11    12    1
     3    12    13    1
     4    13    14    1
     5    14    15    1
     6    15    16    1
     7    16    17    1
     8    17    18    1
     9    18    19    1
    10    17    20    1
    11    20    21    1
    12    11     1    1
    13     1     2    2
    14     2     3    1
    15     3     4    2
    16     4     5    1
    17     5     6    1
    18     6    22    1
    19    22    23    1
    20    23    24    1
    21    23    25    1
    22     6     7    2
    23     7     8    1
    24     8     9    2
    25    19    14    1
    26     9     1    1
    27    21    14    1
    28     9     4    1
@<TRIPOS>MOLECULE
*****
 25 28 0 0 0
SMALL
GASTEIGER

@<TRIPOS>ATOM
      1 C          63.9672   90.5168   13.0693 C.2     1  UNL1        0.0958
      2 C          64.3482   90.6563   14.5134 C.2     1  UNL1        0.1049
      3 N          65.2651   91.8367   14.6388 N.2     1  UNL1       -0.2475
      4 C          65.4508   92.4268   13.2723 C.2     1  UNL1        0.0668
      5 C          66.2467   93.6015   12.7860 C.3     1  UNL1        0.1097
      6 C          66.2403   93.9605   11.3296 C.2     1  UNL1        0.1277
      7 C          65.4381   93.1447   10.3596 C.2     1  UNL1        0.0330
      8 C          64.6422   91.9700   10.8459 C.2     1  UNL1        0.0042
      9 C          64.6486   91.6110   12.3023 C.2     1  UNL1        0.0218
     10 O          63.3749   88.0145   12.6983 O.2     1  UNL1       -0.2448
     11 C          63.0633   89.4673   12.4933 C.2     1  UNL1        0.3428
     12 O          61.8478   89.8708   11.7123 O.3     1  UNL1       -0.4454
     13 C          61.8667   89.8148   10.2135 C.3     1  UNL1        0.2087
     14 C          61.1924   88.6828    9.4968 C.3     1  UNL1        0.0445
     15 C          60.0239   88.9549    8.5965 C.3     1  UNL1        0.0210
     16 C          59.3497   87.8228    7.8798 C.3     1  UNL1        0.0722
     17 N          59.8439   86.4184    8.0633 N.3     1  UNL1       -0.2727
     18 C          61.0125   86.1463    8.9636 C.3     1  UNL1        0.0722
     19 C          61.6867   87.2785    9.6804 C.3     1  UNL1        0.0210
     20 C          60.2456   87.0062    8.4771 C.3     1  UNL1        0.0722
     21 C          60.8553   88.0299    9.1252 C.3     1  UNL1        0.0210
     22 O          67.0362   95.1353   10.8432 O.2     1  UNL1       -0.4277
     23 C          67.6952   95.0888    9.4965 C.3     1  UNL1        0.5084
     24 F          67.5576   96.2475    8.5539 F       1  UNL1       -0.1550
     25 F          68.4917   93.8837    9.0924 F       1  UNL1       -0.1550
@<TRIPOS>BOND
     1    10    11    2
     2    11    12    1
     3    12    13    1
     4    13    14    1
     5    14    15    1
     6    15    16    1
     7    16    17    1
     8    17    18    1
     9    18    19    1
    10    17    20    1
    11    20    21    1
    12    11     1    1
    13     1     2    2
    14     2     3    1
    15     3     4    2
    16     4     5    1
    17     5     6    1
    18     6    22    1
    19    22    23    1
    20    23    24    1
    21    23    25    1
    22     6     7    2
    23     7     8    1
    24     8     9    2
    25    19    14    1
    26     9     1    1
    27    21    14    1
    28     9     4    1
@<TRIPOS>MOLECULE
*****
 25 28 0 0 0
SMALL
GASTEIGER

@<TRIPOS>ATOM
      1 C          63.0683   90.2828   11.5646 C.2     1  UNL1        0.0958
      2 C          63.1692   91.0452   10.2767 C.2     1  UNL1        0.1049
      3 N          64.1911   92.1281   10.4579 N.2     1  UNL1       -0.2475
      4 C          64.7219   92.0351   11.8578 C.2     1  UNL1        0.0668
      5 C          65.7474   92.8415   12.5981 C.3     1  UNL1        0.1097
      6 C          66.0789   92.5074   14.0223 C.2     1  UNL1        0.1277
      7 C          65.3850   91.3670   14.7062 C.2     1  UNL1        0.0330
      8 C          64.3595   90.5606   13.9660 C.2     1  UNL1        0.0042
      9 C          64.0280   90.8946   12.5418 C.2     1  UNL1        0.0218
     10 O          60.7399   89.3434   12.2320 O.2     1  UNL1       -0.2448
     11 C          62.1663   89.1139   11.8289 C.2     1  UNL1        0.3428
     12 O          62.6907   87.7154   11.6901 O.3     1  UNL1       -0.4454
     13 C          61.7645   86.6025   11.2979 C.3     1  UNL1        0.2087
     14 C          61.6661   86.1795    9.8622 C.3     1  UNL1        0.0445
     15 C          62.8064   85.4508    9.2151 C.3     1  UNL1        0.0210
     16 C          62.7080   85.0279    7.7794 C.3     1  UNL1        0.0722
     17 N          61.4692   85.3336    6.9906 N.3     1  UNL1       -0.2727
     18 C          60.3289   86.0623    7.6377 C.3     1  UNL1        0.0722
     19 C          60.4274   86.4853    9.0735 C.3     1  UNL1        0.0210
     20 C          61.4770   85.5854    7.7745 C.3     1  UNL1        0.0722
     21 C          61.5659   85.9679    9.0728 C.3     1  UNL1        0.0210
     22 O          67.1045   93.3139   14.7626 O.2     1  UNL1       -0.4277
     23 C          68.2972   92.6356   15.3688 C.3     1  UNL1        0.5084
     24 F          68.2119   92.0641   16.7529 F       1  UNL1       -0.1550
     25 F          69.5752   92.5290   14.5907 F       1  UNL1       -0.1550
@<TRIPOS>BOND
     1    10    11    2
     2    11    12    1
     3    12    13    1
     4    13    14    1
     5    14    15    1
     6    15    16    1
     7    16    17    1
     8    17    18    1
     9    18    19    1
    10    17    20    1
    11    20    21    1
    12    11     1    1
    13     1     2    2
    14     2     3    1
    15     3     4    2
    16     4     5    1
    17     5     6    1
    18     6    22    1
    19    22    23    1
    20    23    24    1
    21    23    25    1
    22     6     7    2
    23     7     8    1
    24     8     9    2
    25    19    14    1
    26     9     1    1
    27    21    14    1
    28     9     4    1
@<TRIPOS>MOLECULE
*****
 25 28 0 0 0
SMALL
GASTEIGER

@<TRIPOS>ATOM
      1 C          63.5335   82.5836   12.5661 C.2     1  UNL1        0.0958
      2 C          64.4204   81.8557   11.6000 C.2     1  UNL1        0.1049
      3 N          64.4255   82.6199   10.3093 N.2     1  UNL1       -0.2475
      4 C          63.5417   83.8201   10.4777 C.2     1  UNL1        0.0668
      5 C          63.1677   84.9305    9.5412 C.3     1  UNL1        0.1097
      6 C          62.2424   86.0185    9.9995 C.2     1  UNL1        0.1277
      7 C          61.6911   85.9961   11.3944 C.2     1  UNL1        0.0330
      8 C          62.0651   84.8857   12.3309 C.2     1  UNL1        0.0042
      9 C          62.9904   83.7977   11.8726 C.2     1  UNL1        0.0218
     10 O          63.0261   80.7224   14.3064 O.2     1  UNL1       -0.2448
     11 C          63.2410   82.1701   13.9781 C.2     1  UNL1        0.3428
     12 O          63.1634   83.2044   15.0617 O.3     1  UNL1       -0.4454
     13 C          64.3015   84.1591   15.2702 C.3     1  UNL1        0.2087
     14 C          64.0252   85.6114   15.5238 C.3     1  UNL1        0.0445
     15 C          63.3014   86.0310   16.7688 C.3     1  UNL1        0.0210
     16 C          63.0251   87.4834   17.0223 C.3     1  UNL1        0.0722
     17 N          63.4727   88.5162   16.0308 N.3     1  UNL1       -0.2727
     18 C          64.1965   88.0966   14.7858 C.3     1  UNL1        0.0722
     19 C          64.4728   86.6442   14.5323 C.3     1  UNL1        0.0210
     20 C          63.6468   87.7323   15.8485 C.3     1  UNL1        0.0722
     21 C          63.8966   86.4191   15.6192 C.3     1  UNL1        0.0210
     22 O          61.8683   87.1289    9.0630 O.2     1  UNL1       -0.4277
     23 C          61.6535   88.5160    9.5922 C.3     1  UNL1        0.5084
     24 F          60.2668   89.0823    9.6707 F       1  UNL1       -0.1550
     25 F          62.8255   89.3366   10.0428 F       1  UNL1       -0.1550
@<TRIPOS>BOND
     1    10    11    2
     2    11    12    1
     3    12    13    1
     4    13    14    1
     5    14    15    1
     6    15    16    1
     7    16    17    1
     8    17    18    1
     9    18    19    1
    10    17    20    1
    11    20    21    1
    12    11     1    1
    13     1     2    2
    14     2     3    1
    15     3     4    2
    16     4     5    1
    17     5     6    1
    18     6    22    1
    19    22    23    1
    20    23    24    1
    21    23    25    1
    22     6     7    2
    23     7     8    1
    24     8     9    2
    25    19    14    1
    26     9     1    1
    27    21    14    1
    28     9     4    1
@<TRIPOS>MOLECULE
*****
 25 28 0 0 0
SMALL
GASTEIGER

@<TRIPOS>ATOM
      1 C          63.5053   90.2780   14.0434 C.2     1  UNL1        0.0958
      2 C          62.4506   90.0688   12.9975 C.2     1  UNL1        0.1049
      3 N          62.8957   90.7637   11.7450 N.2     1  UNL1       -0.2475
      4 C          64.2254   91.4025   12.0168 C.2     1  UNL1        0.0668
      5 C          65.1419   92.2187   11.1543 C.3     1  UNL1        0.1097
      6 C          66.4350   92.7347   11.7123 C.2     1  UNL1        0.1277
      7 C          66.8117   92.4346   13.1329 C.2     1  UNL1        0.0330
      8 C          65.8953   91.6183   13.9954 C.2     1  UNL1        0.0042
      9 C          64.6022   91.1023   13.4373 C.2     1  UNL1        0.0218
     10 O          63.1988   90.6894   16.5903 O.2     1  UNL1       -0.2448
     11 C          63.4693   89.7549   15.4488 C.2     1  UNL1        0.3428
     12 O          63.7039   88.2969   15.7126 O.3     1  UNL1       -0.4454
     13 C          64.4433   87.4626   14.7089 C.3     1  UNL1        0.2087
     14 C          63.9730   86.0729   14.3969 C.3     1  UNL1        0.0445
     15 C          64.0574   85.0001   15.4419 C.3     1  UNL1        0.0210
     16 C          63.5871   83.6104   15.1297 C.3     1  UNL1        0.0722
     17 N          63.0322   83.2934   13.7726 N.3     1  UNL1       -0.2727
     18 C          62.9477   84.3661   12.7277 C.3     1  UNL1        0.0722
     19 C          63.4181   85.7559   13.0398 C.3     1  UNL1        0.0210
     20 C          63.2775   84.0695   13.8971 C.3     1  UNL1        0.0722
     21 C          63.7028   85.3261   14.1792 C.3     1  UNL1        0.0210
     22 O          67.3515   93.5510   10.8498 O.2     1  UNL1       -0.4277
     23 C          67.8122   93.0143    9.5271 C.3     1  UNL1        0.5084
     24 F          68.2430   91.5825    9.4076 F       1  UNL1       -0.1550
     25 F          67.8420   93.9094    8.3238 F       1  UNL1       -0.1550
@<TRIPOS>BOND
     1    10    11    2
     2    11    12    1
     3    12    13    1
     4    13    14    1
     5    14    15    1
     6    15    16    1
     7    16    17    1
     8    17    18    1
     9    18    19    1
    10    17    20    1
    11    20    21    1
    12    11     1    1
    13     1     2    2
    14     2     3    1
    15     3     4    2
    16     4     5    1
    17     5     6    1
    18     6    22    1
    19    22    23    1
    20    23    24    1
    21    23    25    1
    22     6     7    2
    23     7     8    1
    24     8     9    2
    25    19    14    1
    26     9     1    1
    27    21    14    1
    28     9     4    1
@<TRIPOS>MOLECULE
*****
 25 28 0 0 0
SMALL
GASTEIGER

@<TRIPOS>ATOM
      1 C          63.9005   89.8045   13.4608 C.2     1  UNL1        0.0958
      2 C          64.2136   88.5736   14.2589 C.2     1  UNL1        0.1049
      3 N          63.6850   87.3875   13.5082 N.2     1  UNL1       -0.2475
      4 C          63.0452   87.8853   12.2461 C.2     1  UNL1        0.0668
      5 C          62.3586   87.1713   11.1197 C.3     1  UNL1        0.1097
      6 C          61.8051   87.9511    9.9641 C.2     1  UNL1        0.1277
      7 C          61.9383   89.4449    9.9348 C.2     1  UNL1        0.0330
      8 C          62.6250   90.1589   11.0612 C.2     1  UNL1        0.0042
      9 C          63.1784   89.3790   12.2168 C.2     1  UNL1        0.0218
     10 O          64.1004   91.6656   15.2626 O.2     1  UNL1       -0.2448
     11 C          64.2484   91.2134   13.8401 C.2     1  UNL1        0.3428
     12 O          64.7444   92.1703   12.7967 O.3     1  UNL1       -0.4454
     13 C          66.2165   92.4124   12.6403 C.3     1  UNL1        0.2087
     14 C          66.7622   92.8926   11.3282 C.3     1  UNL1        0.0445
     15 C          67.7773   92.0696   10.5918 C.3     1  UNL1        0.0210
     16 C          68.3229   92.5498    9.2797 C.3     1  UNL1        0.0722
     17 N          67.8536   93.8530    8.7039 N.3     1  UNL1       -0.2727
     18 C          66.8385   94.6760    9.4404 C.3     1  UNL1        0.0722
     19 C          66.2928   94.1958   10.7526 C.3     1  UNL1        0.0210
     20 C          67.5258   93.6311    9.4260 C.3     1  UNL1        0.0722
     21 C          67.0323   93.1970   10.6124 C.3     1  UNL1        0.0210
     22 O          61.1185   87.2371    8.8376 O.2     1  UNL1       -0.4277
     23 C          59.7996   87.7364    8.3265 C.3     1  UNL1        0.5084
     24 F          59.6927   89.1168    7.7496 F       1  UNL1       -0.1550
     25 F          58.5875   86.8551    8.3922 F       1  UNL1       -0.1550
@<TRIPOS>BOND
     1    10    11    2
     2    11    12    1
     3    12    13    1
     4    13    14    1
     5    14    15    1
     6    15    16    1
     7    16    17    1
     8    17    18    1
     9    18    19    1
    10    17    20    1
    11    20    21    1
    12    11     1    1
    13     1     2    2
    14     2     3    1
    15     3     4    2
    16     4     5    1
    17     5     6    1
    18     6    22    1
    19    22    23    1
    20    23    24    1
    21    23    25    1
    22     6     7    2
    23     7     8    1
    24     8     9    2
    25    19    14    1
    26     9     1    1
    27    21    14    1
    28     9     4    1
@<TRIPOS>MOLECULE
*****
 25 28 0 0 0
SMALL
GASTEIGER

@<TRIPOS>ATOM
      1 C          62.1173   87.9484   11.0103 C.2     1  UNL1        0.0958
      2 C          61.6163   88.8425    9.9151 C.2     1  UNL1        0.1049
      3 N          62.1160   90.2308   10.1850 N.2     1  UNL1       -0.2475
      4 C          62.9258   90.1947   11.4472 C.2     1  UNL1        0.0668
      5 C          63.6625   91.2641   12.1978 C.3     1  UNL1        0.1097
      6 C          64.4001   90.9229   13.4586 C.2     1  UNL1        0.1277
      7 C          64.4009   89.5123   13.9687 C.2     1  UNL1        0.0330
      8 C          63.6641   88.4429   13.2180 C.2     1  UNL1        0.0042
      9 C          62.9266   88.7841   11.9572 C.2     1  UNL1        0.0218
     10 O          61.4462   85.6819    9.9322 O.2     1  UNL1       -0.2448
     11 C          61.8550   86.4769   11.1366 C.2     1  UNL1        0.3428
     12 O          62.0016   85.8004   12.4674 O.3     1  UNL1       -0.4454
     13 C          63.1284   84.8378   12.6993 C.3     1  UNL1        0.2087
     14 C          62.8500   83.3673   12.7986 C.3     1  UNL1        0.0445
     15 C          63.1026   82.4748   11.6197 C.3     1  UNL1        0.0210
     16 C          62.8242   81.0043   11.7190 C.3     1  UNL1        0.0722
     17 N          62.2932   80.4260   12.9972 N.3     1  UNL1       -0.2727
     18 C          62.0406   81.3184   14.1761 C.3     1  UNL1        0.0722
     19 C          62.3191   82.7891   14.0768 C.3     1  UNL1        0.0210
     20 C          62.4305   81.2379   12.9904 C.3     1  UNL1        0.0722
     21 C          62.6823   82.5676   12.9007 C.3     1  UNL1        0.0210
     22 O          65.1368   91.9923   14.2093 O.2     1  UNL1       -0.4277
     23 C          66.6368   92.0028   14.2209 C.3     1  UNL1        0.5084
     24 F          67.3917   92.5858   13.0633 F       1  UNL1       -0.1550
     25 F          67.3817   91.4301   15.3903 F       1  UNL1       -0.1550
@<TRIPOS>BOND
     1    10    11    2
     2    11    12    1
     3    12    13    1
     4    13    14    1
     5    14    15    1
     6    15    16    1
     7    16    17    1
     8    17    18    1
     9    18    19    1
    10    17    20    1
    11    20    21    1
    12    11     1    1
    13     1     2    2
    14     2     3    1
    15     3     4    2
    16     4     5    1
    17     5     6    1
    18     6    22    1
    19    22    23    1
    20    23    24    1
    21    23    25    1
    22     6     7    2
    23     7     8    1
    24     8     9    2
    25    19    14    1
    26     9     1    1
    27    21    14    1
    28     9     4    1
@<TRIPOS>MOLECULE
*****
 25 28 0 0 0
SMALL
GASTEIGER

@<TRIPOS>ATOM
      1 C          63.1506   89.7166   12.4143 C.2     1  UNL1        0.0958
      2 C          63.5679   89.3364   13.8040 C.2     1  UNL1        0.1049
      3 N          64.6676   90.2643   14.2279 N.2     1  UNL1       -0.2475
      4 C          64.9299   91.2179   13.1002 C.2     1  UNL1        0.0668
      5 C          65.9014   92.3508   12.9491 C.3     1  UNL1        0.1097
      6 C          65.9353   93.1451   11.6772 C.2     1  UNL1        0.1277
      7 C          64.9978   92.8066   10.5563 C.2     1  UNL1        0.0330
      8 C          64.0263   91.6738   10.7074 C.2     1  UNL1        0.0042
      9 C          63.9924   90.8795   11.9793 C.2     1  UNL1        0.0218
     10 O          60.6431   89.1629   12.0192 O.2     1  UNL1       -0.2448
     11 C          62.0795   89.0509   11.6021 C.2     1  UNL1        0.3428
     12 O          62.4449   88.2730   10.3726 O.3     1  UNL1       -0.4454
     13 C          61.7440   86.9828   10.0655 C.3     1  UNL1        0.2087
     14 C          62.3761   85.6769   10.4462 C.3     1  UNL1        0.0445
     15 C          63.1341   84.8840    9.4231 C.3     1  UNL1        0.0210
     16 C          63.7662   83.5781    9.8040 C.3     1  UNL1        0.0722
     17 N          63.6403   83.0650   11.2079 N.3     1  UNL1       -0.2727
     18 C          62.8823   83.8579   12.2310 C.3     1  UNL1        0.0722
     19 C          62.2502   85.1639   11.8501 C.3     1  UNL1        0.0210
     20 C          63.2768   83.7860   11.0463 C.3     1  UNL1        0.0722
     21 C          62.7053   84.9668   10.7021 C.3     1  UNL1        0.0210
     22 O          66.9069   94.2780   11.5261 O.2     1  UNL1       -0.4277
     23 C          66.8699   95.1391   10.2984 C.3     1  UNL1        0.5084
     24 F          68.0030   95.0944    9.3166 F       1  UNL1       -0.1550
     25 F          65.6997   96.0448   10.0526 F       1  UNL1       -0.1550
@<TRIPOS>BOND
     1    10    11    2
     2    11    12    1
     3    12    13    1
     4    13    14    1
     5    14    15    1
     6    15    16    1
     7    16    17    1
     8    17    18    1
     9    18    19    1
    10    17    20    1
    11    20    21    1
    12    11     1    1
    13     1     2    2
    14     2     3    1
    15     3     4    2
    16     4     5    1
    17     5     6    1
    18     6    22    1
    19    22    23    1
    20    23    24    1
    21    23    25    1
    22     6     7    2
    23     7     8    1
    24     8     9    2
    25    19    14    1
    26     9     1    1
    27    21    14    1
    28     9     4    1
