@<TRIPOS>MOLECULE
*****
 33 35 0 0 0
SMALL
GASTEIGER

@<TRIPOS>ATOM
      1 C          62.5417   89.0201   11.4903 C.ar    1  UNL1        0.0543
      2 C          63.5288   89.4914   12.5166 C.ar    1  UNL1       -0.0163
      3 C          63.7659   88.6814   13.7566 C.3     1  UNL1        0.0310
      4 C          64.2788   90.7728   12.3030 C.ar    1  UNL1        0.0308
      5 C          65.2659   91.2441   13.3294 C.ar    1  UNL1        0.0058
      6 C          66.0159   92.5254   13.1158 C.ar    1  UNL1        0.0378
      7 C          65.7788   93.3354   11.8758 C.ar    1  UNL1        0.1531
      8 C          64.7917   92.8642   10.8494 C.ar    1  UNL1        0.0752
      9 C          64.0417   91.5828   11.0630 C.ar    1  UNL1        0.1514
     10 O          63.0545   91.1115   10.0366 O.2     1  UNL1       -0.4212
     11 C          62.3046   89.8302   10.2503 C.ar    1  UNL1        0.3417
     12 O          61.3174   89.3588    9.2239 O.2     1  UNL1       -0.2448
     13 C          61.7916   87.7387   11.7039 C.3     1  UNL1        0.0590
     14 C          63.4422   84.1298   11.6827 C.ar    1  UNL1        0.1475
     15 C          62.8719   85.4246   12.1808 C.ar    1  UNL1        0.0317
     16 C          62.3619   86.4439   11.2057 C.ar    1  UNL1       -0.0132
     17 C          62.4222   86.1685    9.7325 C.ar    1  UNL1        0.0168
     18 C          62.9925   84.8736    9.2343 C.ar    1  UNL1        0.1000
     19 N          63.5025   83.8542   10.2094 N.ar    1  UNL1       -0.2279
     20 N          63.9522   83.1104   12.6578 N.pl3   1  UNL1       -0.1891
     21 H          64.9023   82.8526   12.6485 H       1  UNL1        0.1763
     22 S          63.0146   82.4839   13.6470 S.O2    1  UNL1        0.1110
     23 O          62.2247   81.8869   12.5203 O.2     1  UNL1       -0.1381
     24 O          63.8046   83.0809   14.7737 O.2     1  UNL1       -0.1381
     25 C          61.0007   80.9259   14.1633 C.3     1  UNL1        0.1116
     26 N          62.0771   81.8575   14.6362 N.3     1  UNL1       -0.1651
     27 H          62.6521   81.3326   15.2953 H       1  UNL1        0.1502
     28 O          66.5288   94.6168   11.6622 O.3     1  UNL1       -0.4100
     29 C          66.9868   94.9972   10.2854 C.2     1  UNL1        0.4095
     30 O          68.1715   94.3109    9.6727 O.2     1  UNL1       -0.2258
     31 N          66.2601   96.0641    9.5213 N.am    1  UNL1       -0.2422
     32 C          66.7181   96.4445    8.1445 C.3     1  UNL1        0.1184
     33 C          65.0754   96.7504   10.1340 C.3     1  UNL1        0.1184
@<TRIPOS>BOND
     1    25    26    1
     2    26    22    1
     3    22    23    2
     4    22    24    2
     5    22    20    1
     6    20    14    1
     7    14    15   ar
     8    15    16   ar
     9    16    13    1
    10    13     1    1
    11     1     2   ar
    12     2     3    1
    13     2     4   ar
    14     4     5   ar
    15     5     6   ar
    16     6     7   ar
    17     7    28    1
    18    28    29    1
    19    29    30    2
    20    29    31   am
    21    31    32    1
    22    31    33    1
    23     7     8   ar
    24     8     9   ar
    25     9    10   ar
    26    10    11   ar
    27    11    12    2
    28    16    17   ar
    29    17    18   ar
    30    18    19   ar
    31    19    14   ar
    32    11     1   ar
    33     9     4   ar
    34    26    27    1
    35    20    21    1
@<TRIPOS>MOLECULE
*****
 33 35 0 0 0
SMALL
GASTEIGER

@<TRIPOS>ATOM
      1 C          62.2237   87.0962   11.2525 C.ar    1  UNL1        0.0543
      2 C          63.0298   87.3199   12.4975 C.ar    1  UNL1       -0.0163
      3 C          63.2985   86.1779   13.4323 C.3     1  UNL1        0.0310
      4 C          63.5671   88.6855   12.8079 C.ar    1  UNL1        0.0308
      5 C          64.3731   88.9092   14.0530 C.ar    1  UNL1        0.0058
      6 C          64.9105   90.2749   14.3633 C.ar    1  UNL1        0.0378
      7 C          64.6417   91.4168   13.4285 C.ar    1  UNL1        0.1531
      8 C          63.8357   91.1931   12.1834 C.ar    1  UNL1        0.0752
      9 C          63.2984   89.8275   11.8731 C.ar    1  UNL1        0.1514
     10 O          62.4923   89.6037   10.6280 O.2     1  UNL1       -0.4212
     11 C          61.9550   88.2381   10.3177 C.ar    1  UNL1        0.3417
     12 O          61.1489   88.0143    9.0726 O.2     1  UNL1       -0.2448
     13 C          61.6864   85.7305   10.9421 C.3     1  UNL1        0.0590
     14 C          63.6907   82.4252   11.8409 C.ar    1  UNL1        0.1475
     15 C          62.7540   83.5909   11.9581 C.ar    1  UNL1        0.0317
     16 C          62.6230   84.5648   10.8248 C.ar    1  UNL1       -0.0132
     17 C          63.4288   84.3730    9.5742 C.ar    1  UNL1        0.0168
     18 C          64.3655   83.2073    9.4569 C.ar    1  UNL1        0.1000
     19 N          64.4964   82.2334   10.5902 N.ar    1  UNL1       -0.2279
     20 N          63.8216   81.4513   12.9742 N.pl3   1  UNL1       -0.1891
     21 H          64.6767   80.9888   13.1294 H       1  UNL1        0.1763
     22 S          62.6496   81.1821   13.8709 S.O2    1  UNL1        0.1110
     23 O          62.0997   80.2173   12.8626 O.2     1  UNL1       -0.1381
     24 O          63.1995   82.1469   14.8792 O.2     1  UNL1       -0.1381
     25 C          60.1640   80.4919   14.1787 C.3     1  UNL1        0.1116
     26 N          61.4777   80.9129   14.7676 N.3     1  UNL1       -0.1651
     27 H          61.7625   80.1740   15.4105 H       1  UNL1        0.1502
     28 O          65.1791   92.7825   13.7388 O.3     1  UNL1       -0.4100
     29 C          66.6605   93.0102   13.7967 C.2     1  UNL1        0.4095
     30 O          67.4280   93.2779   12.5360 O.2     1  UNL1       -0.2258
     31 N          67.3746   92.9702   15.1153 N.am    1  UNL1       -0.2422
     32 C          68.8560   93.1980   15.1731 C.3     1  UNL1        0.1184
     33 C          66.6071   92.7026   16.3760 C.3     1  UNL1        0.1184
@<TRIPOS>BOND
     1    25    26    1
     2    26    22    1
     3    22    23    2
     4    22    24    2
     5    22    20    1
     6    20    14    1
     7    14    15   ar
     8    15    16   ar
     9    16    13    1
    10    13     1    1
    11     1     2   ar
    12     2     3    1
    13     2     4   ar
    14     4     5   ar
    15     5     6   ar
    16     6     7   ar
    17     7    28    1
    18    28    29    1
    19    29    30    2
    20    29    31   am
    21    31    32    1
    22    31    33    1
    23     7     8   ar
    24     8     9   ar
    25     9    10   ar
    26    10    11   ar
    27    11    12    2
    28    16    17   ar
    29    17    18   ar
    30    18    19   ar
    31    19    14   ar
    32    11     1   ar
    33     9     4   ar
    34    26    27    1
    35    20    21    1
@<TRIPOS>MOLECULE
*****
 33 35 0 0 0
SMALL
GASTEIGER

@<TRIPOS>ATOM
      1 C          62.8439   89.3776   11.9671 C.ar    1  UNL1        0.0543
      2 C          63.8592   89.9149   12.9316 C.ar    1  UNL1       -0.0163
      3 C          64.1055   89.2089   14.2320 C.3     1  UNL1        0.0310
      4 C          64.6282   91.1583   12.5958 C.ar    1  UNL1        0.0308
      5 C          65.6435   91.6956   13.5603 C.ar    1  UNL1        0.0058
      6 C          66.4125   92.9389   13.2245 C.ar    1  UNL1        0.0378
      7 C          66.1662   93.6449   11.9241 C.ar    1  UNL1        0.1531
      8 C          65.1509   93.1075   10.9596 C.ar    1  UNL1        0.0752
      9 C          64.3819   91.8642   11.2954 C.ar    1  UNL1        0.1514
     10 O          63.3665   91.3268   10.3309 O.2     1  UNL1       -0.4212
     11 C          62.5975   90.0835   10.6667 C.ar    1  UNL1        0.3417
     12 O          61.5821   89.5461    9.7022 O.2     1  UNL1       -0.2448
     13 C          62.0748   88.1342   12.3029 C.3     1  UNL1        0.0590
     14 C          62.7178   85.2411    9.6636 C.ar    1  UNL1        0.1475
     15 C          62.3061   86.5589   10.2499 C.ar    1  UNL1        0.0317
     16 C          62.4865   86.8164   11.7166 C.ar    1  UNL1       -0.0132
     17 C          63.0785   85.7560   12.5969 C.ar    1  UNL1        0.0168
     18 C          63.4902   84.4381   12.0106 C.ar    1  UNL1        0.1000
     19 N          63.3099   84.1807   10.5439 N.ar    1  UNL1       -0.2279
     20 N          62.5374   84.9836    8.1969 N.pl3   1  UNL1       -0.1891
     21 H          63.2751   84.5994    7.6702 H       1  UNL1        0.1763
     22 S          61.2330   85.3116    7.5327 S.O2    1  UNL1        0.1110
     23 O          61.7476   84.7455    6.2425 O.2     1  UNL1       -0.1381
     24 O          60.7184   85.8777    8.8229 O.2     1  UNL1       -0.1381
     25 C          59.0124   86.6590    7.4778 C.3     1  UNL1        0.1116
     26 N          59.9287   85.6396    6.8686 N.3     1  UNL1       -0.1651
     27 H          60.1511   85.9678    5.9288 H       1  UNL1        0.1502
     28 O          66.9352   94.8882   11.5883 O.3     1  UNL1       -0.4100
     29 C          66.4640   95.7859   10.4828 C.2     1  UNL1        0.4095
     30 O          65.4457   96.8508   10.7639 O.2     1  UNL1       -0.2258
     31 N          67.0112   95.6188    9.0962 N.am    1  UNL1       -0.2422
     32 C          66.5400   96.5165    7.9907 C.3     1  UNL1        0.1184
     33 C          68.0296   94.5539    8.8151 C.3     1  UNL1        0.1184
@<TRIPOS>BOND
     1    25    26    1
     2    26    22    1
     3    22    23    2
     4    22    24    2
     5    22    20    1
     6    20    14    1
     7    14    15   ar
     8    15    16   ar
     9    16    13    1
    10    13     1    1
    11     1     2   ar
    12     2     3    1
    13     2     4   ar
    14     4     5   ar
    15     5     6   ar
    16     6     7   ar
    17     7    28    1
    18    28    29    1
    19    29    30    2
    20    29    31   am
    21    31    32    1
    22    31    33    1
    23     7     8   ar
    24     8     9   ar
    25     9    10   ar
    26    10    11   ar
    27    11    12    2
    28    16    17   ar
    29    17    18   ar
    30    18    19   ar
    31    19    14   ar
    32    11     1   ar
    33     9     4   ar
    34    26    27    1
    35    20    21    1
