@<TRIPOS>MOLECULE
*****
 32 36 0 0 0
SMALL
GASTEIGER

@<TRIPOS>ATOM
      1 N          62.4420   87.3824   11.8881 N.3     1  UNL1       -0.2679
      2 C          62.7999   88.8012   11.5583 C.3     1  UNL1        0.0978
      3 C          62.3997   89.3879   10.2370 C.3     1  UNL1        0.0224
      4 C          62.7577   90.8069    9.9073 C.3     1  UNL1        0.0065
      5 C          63.5157   91.6390   10.8987 C.3     1  UNL1        0.0277
      6 C          63.9158   91.0522   12.2199 C.ar    1  UNL1       -0.0073
      7 C          64.6738   91.8843   13.2114 C.ar    1  UNL1       -0.0015
      8 C          65.0739   91.2976   14.5326 C.ar    1  UNL1        0.0203
      9 C          64.7160   89.8788   14.8624 C.ar    1  UNL1        0.0985
     10 N          63.9580   89.0467   13.8710 N.ar    1  UNL1       -0.2471
     11 C          63.5579   89.6334   12.5497 C.ar    1  UNL1        0.0695
     12 C          63.4344   86.5019   12.5880 C.3     1  UNL1        0.0886
     13 C          62.0849   79.7970   13.2761 C.ar    1  UNL1       -0.0003
     14 C          62.6761   80.0421   11.9196 C.ar    1  UNL1       -0.0003
     15 C          63.0643   81.4322   11.5106 C.ar    1  UNL1       -0.0045
     16 C          62.8612   82.5770   12.4583 C.ar    1  UNL1       -0.0234
     17 C          62.2700   82.3318   13.8148 C.ar    1  UNL1       -0.0103
     18 C          61.8818   80.9418   14.2238 C.ar    1  UNL1       -0.0032
     19 C          62.0669   83.4767   14.7625 C.3     1  UNL1        0.0953
     20 N          62.4550   84.8667   14.3536 N.3     1  UNL1       -0.2934
     21 C          63.0463   85.1119   12.9969 C.3     1  UNL1        0.0748
     22 C          63.2493   83.9670   12.0493 C.3     1  UNL1        0.0432
     23 H          63.1384   85.1945   15.0362 H       1  UNL1        0.1236
     24 C          61.0918   86.8440   11.5179 C.3     1  UNL1        0.0724
     25 C          60.5542   87.0544   10.1335 C.3     1  UNL1        0.0174
     26 C          61.1049   86.2603    8.9863 C.3     1  UNL1        0.0041
     27 C          62.5182   85.7596    9.0308 C.3     1  UNL1        0.0172
     28 C          63.0690   84.9655    7.8836 C.3     1  UNL1        0.0686
     29 N          62.2065   84.6721    6.6920 N.3     1  UNL1       -0.2975
     30 C          60.7932   85.1728    6.6475 C.3     1  UNL1        0.0686
     31 C          60.2425   85.9669    7.7947 C.3     1  UNL1        0.0172
     32 H          62.1621   83.6569    6.6034 H       1  UNL1        0.1232
@<TRIPOS>BOND
     1    13    14   ar
     2    14    15   ar
     3    15    16   ar
     4    16    17   ar
     5    17    18   ar
     6    17    19    1
     7    19    20    1
     8    20    21    1
     9    21    12    1
    10    12     1    1
    11     1    24    1
    12    24    25    1
    13    25    26    1
    14    26    27    1
    15    27    28    1
    16    28    29    1
    17    29    30    1
    18    30    31    1
    19     2     1    1
    20     2     3    1
    21     3     4    1
    22     4     5    1
    23     5     6    1
    24     6     7   ar
    25     7     8   ar
    26     8     9   ar
    27     9    10   ar
    28    10    11   ar
    29    21    22    1
    30    18    13   ar
    31    31    26    1
    32    11     2    1
    33    22    16    1
    34    11     6   ar
    35    20    23    1
    36    29    32    1
@<TRIPOS>MOLECULE
*****
 32 36 0 0 0
SMALL
GASTEIGER

@<TRIPOS>ATOM
      1 N          62.7843   89.9015   12.8232 N.3     1  UNL1       -0.2679
      2 C          63.7576   90.9214   12.3110 C.3     1  UNL1        0.0978
      3 C          63.8234   91.2248   10.8435 C.3     1  UNL1        0.0224
      4 C          64.7968   92.2448   10.3314 C.3     1  UNL1        0.0065
      5 C          65.7045   92.9612   11.2868 C.3     1  UNL1        0.0277
      6 C          65.6388   92.6577   12.7543 C.ar    1  UNL1       -0.0073
      7 C          66.5464   93.3741   13.7097 C.ar    1  UNL1       -0.0015
      8 C          66.4807   93.0707   15.1772 C.ar    1  UNL1        0.0203
      9 C          65.5073   92.0508   15.6894 C.ar    1  UNL1        0.0985
     10 N          64.5997   91.3344   14.7340 N.ar    1  UNL1       -0.2471
     11 C          64.6654   91.6379   13.2664 C.ar    1  UNL1        0.0695
     12 C          61.4090   89.8134   12.2307 C.3     1  UNL1        0.0886
     13 C          61.4207   85.1380    7.1918 C.ar    1  UNL1       -0.0003
     14 C          62.7656   85.1477    7.8558 C.ar    1  UNL1       -0.0003
     15 C          63.0323   86.0847    8.9963 C.ar    1  UNL1       -0.0045
     16 C          61.9540   87.0120    9.4729 C.ar    1  UNL1       -0.0234
     17 C          60.6090   87.0024    8.8090 C.ar    1  UNL1       -0.0103
     18 C          60.3423   86.0653    7.6684 C.ar    1  UNL1       -0.0032
     19 C          59.5306   87.9297    9.2856 C.3     1  UNL1        0.0953
     20 N          59.7972   88.8668   10.4262 N.3     1  UNL1       -0.2934
     21 C          61.1423   88.8764   11.0901 C.3     1  UNL1        0.0748
     22 C          62.2206   87.9491   10.6135 C.3     1  UNL1        0.0432
     23 H          59.1127   88.6508   11.1508 H       1  UNL1        0.1236
     24 C          63.1860   88.9696   13.9278 C.3     1  UNL1        0.0724
     25 C          64.2100   87.9033   13.6742 C.3     1  UNL1        0.0174
     26 C          63.8843   86.4673   13.9604 C.3     1  UNL1        0.0041
     27 C          64.1635   85.8910   15.3169 C.3     1  UNL1        0.0172
     28 C          63.8377   84.4550   15.6032 C.3     1  UNL1        0.0686
     29 N          63.2328   83.5955   14.5330 N.3     1  UNL1       -0.2975
     30 C          62.9536   84.1718   13.1766 C.3     1  UNL1        0.0686
     31 C          63.2794   85.6078   12.8903 C.3     1  UNL1        0.0172
     32 H          62.3429   83.2547   14.8969 H       1  UNL1        0.1232
@<TRIPOS>BOND
     1    13    14   ar
     2    14    15   ar
     3    15    16   ar
     4    16    17   ar
     5    17    18   ar
     6    17    19    1
     7    19    20    1
     8    20    21    1
     9    21    12    1
    10    12     1    1
    11     1    24    1
    12    24    25    1
    13    25    26    1
    14    26    27    1
    15    27    28    1
    16    28    29    1
    17    29    30    1
    18    30    31    1
    19     2     1    1
    20     2     3    1
    21     3     4    1
    22     4     5    1
    23     5     6    1
    24     6     7   ar
    25     7     8   ar
    26     8     9   ar
    27     9    10   ar
    28    10    11   ar
    29    21    22    1
    30    18    13   ar
    31    31    26    1
    32    11     2    1
    33    22    16    1
    34    11     6   ar
    35    20    23    1
    36    29    32    1
@<TRIPOS>MOLECULE
*****
 32 36 0 0 0
SMALL
GASTEIGER

@<TRIPOS>ATOM
      1 N          63.3735   90.8835   12.9669 N.3     1  UNL1       -0.2679
      2 C          64.5970   91.6669   12.5935 C.3     1  UNL1        0.0978
      3 C          64.9109   91.9246   11.1496 C.3     1  UNL1        0.0224
      4 C          66.1344   92.7079   10.7762 C.3     1  UNL1        0.0065
      5 C          67.0440   93.2336   11.8469 C.3     1  UNL1        0.0277
      6 C          66.7301   92.9759   13.2909 C.ar    1  UNL1       -0.0073
      7 C          67.6397   93.5016   14.3615 C.ar    1  UNL1       -0.0015
      8 C          67.3258   93.2439   15.8055 C.ar    1  UNL1        0.0203
      9 C          66.1023   92.4606   16.1788 C.ar    1  UNL1        0.0985
     10 N          65.1927   91.9349   15.1082 N.ar    1  UNL1       -0.2471
     11 C          65.5066   92.1926   13.6642 C.ar    1  UNL1        0.0695
     12 C          62.1826   90.8727   12.0548 C.3     1  UNL1        0.0886
     13 C          59.9591   86.0519    7.6883 C.ar    1  UNL1       -0.0003
     14 C          59.3366   87.3676    7.3258 C.ar    1  UNL1       -0.0003
     15 C          59.6568   88.5949    8.1266 C.ar    1  UNL1       -0.0045
     16 C          60.5995   88.5065    9.2899 C.ar    1  UNL1       -0.0234
     17 C          61.2220   87.1909    9.6524 C.ar    1  UNL1       -0.0103
     18 C          60.9018   85.9636    8.8516 C.ar    1  UNL1       -0.0032
     19 C          62.1648   87.1024   10.8158 C.3     1  UNL1        0.0953
     20 N          62.4850   88.3297   11.6166 N.3     1  UNL1       -0.2934
     21 C          61.8624   89.6454   11.2540 C.3     1  UNL1        0.0748
     22 C          60.9197   89.7338   10.0907 C.3     1  UNL1        0.0432
     23 H          63.4956   88.4585   11.5667 H       1  UNL1        0.1236
     24 C          63.3408   90.1110   14.2522 C.3     1  UNL1        0.0724
     25 C          64.2865   88.9661   14.4634 C.3     1  UNL1        0.0174
     26 C          63.8948   87.8241   15.3536 C.3     1  UNL1        0.0041
     27 C          63.1500   88.0883   16.6286 C.3     1  UNL1        0.0172
     28 C          62.7583   86.9463   17.5187 C.3     1  UNL1        0.0686
     29 N          63.1113   85.5401   17.1339 N.3     1  UNL1       -0.2975
     30 C          63.8560   85.2760   15.8589 C.3     1  UNL1        0.0686
     31 C          64.2478   86.4180   14.9688 C.3     1  UNL1        0.0172
     32 H          62.2347   85.0219   17.0756 H       1  UNL1        0.1232
@<TRIPOS>BOND
     1    13    14   ar
     2    14    15   ar
     3    15    16   ar
     4    16    17   ar
     5    17    18   ar
     6    17    19    1
     7    19    20    1
     8    20    21    1
     9    21    12    1
    10    12     1    1
    11     1    24    1
    12    24    25    1
    13    25    26    1
    14    26    27    1
    15    27    28    1
    16    28    29    1
    17    29    30    1
    18    30    31    1
    19     2     1    1
    20     2     3    1
    21     3     4    1
    22     4     5    1
    23     5     6    1
    24     6     7   ar
    25     7     8   ar
    26     8     9   ar
    27     9    10   ar
    28    10    11   ar
    29    21    22    1
    30    18    13   ar
    31    31    26    1
    32    11     2    1
    33    22    16    1
    34    11     6   ar
    35    20    23    1
    36    29    32    1
@<TRIPOS>MOLECULE
*****
 32 36 0 0 0
SMALL
GASTEIGER

@<TRIPOS>ATOM
      1 N          63.2493   85.0354   12.7133 N.3     1  UNL1       -0.2679
      2 C          63.4008   83.7385   11.9750 C.3     1  UNL1        0.0978
      3 C          64.1181   83.7045   10.6581 C.3     1  UNL1        0.0224
      4 C          64.2696   82.4075    9.9198 C.3     1  UNL1        0.0065
      5 C          63.7038   81.1446   10.4985 C.3     1  UNL1        0.0277
      6 C          62.9865   81.1786   11.8154 C.ar    1  UNL1       -0.0073
      7 C          62.4206   79.9157   12.3941 C.ar    1  UNL1       -0.0015
      8 C          61.7033   79.9497   13.7111 C.ar    1  UNL1        0.0203
      9 C          61.5519   81.2466   14.4493 C.ar    1  UNL1        0.0985
     10 N          62.1177   82.5095   13.8706 N.ar    1  UNL1       -0.2471
     11 C          62.8350   82.4755   12.5537 C.ar    1  UNL1        0.0695
     12 C          63.9728   85.2493   14.0098 C.3     1  UNL1        0.0886
     13 C          64.1107   91.7521   16.2334 C.ar    1  UNL1       -0.0003
     14 C          64.7938   91.6745   14.9003 C.ar    1  UNL1       -0.0003
     15 C          64.9028   90.3584   14.1889 C.ar    1  UNL1       -0.0045
     16 C          64.3288   89.1200   14.8107 C.ar    1  UNL1       -0.0234
     17 C          63.6457   89.1976   16.1439 C.ar    1  UNL1       -0.0103
     18 C          63.5367   90.5137   16.8552 C.ar    1  UNL1       -0.0032
     19 C          63.0716   87.9591   16.7657 C.3     1  UNL1        0.0953
     20 N          63.1807   86.6430   16.0544 N.3     1  UNL1       -0.2934
     21 C          63.8638   86.5654   14.7211 C.3     1  UNL1        0.0748
     22 C          64.4378   87.8039   14.0993 C.3     1  UNL1        0.0432
     23 H          62.2290   86.3024   15.9179 H       1  UNL1        0.1236
     24 C          62.3744   86.1184   12.1551 C.3     1  UNL1        0.0724
     25 C          61.6201   85.8900   10.8788 C.3     1  UNL1        0.0174
     26 C          61.1276   87.0596   10.0791 C.3     1  UNL1        0.0041
     27 C          61.5937   88.4458   10.4127 C.3     1  UNL1        0.0172
     28 C          61.1012   89.6154    9.6129 C.3     1  UNL1        0.0686
     29 N          60.1427   89.3987    8.4796 N.3     1  UNL1       -0.2975
     30 C          59.6767   88.0125    8.1460 C.3     1  UNL1        0.0686
     31 C          60.1692   86.8429    8.9458 C.3     1  UNL1        0.0172
     32 H          60.5899   89.7687    7.6409 H       1  UNL1        0.1232
@<TRIPOS>BOND
     1    13    14   ar
     2    14    15   ar
     3    15    16   ar
     4    16    17   ar
     5    17    18   ar
     6    17    19    1
     7    19    20    1
     8    20    21    1
     9    21    12    1
    10    12     1    1
    11     1    24    1
    12    24    25    1
    13    25    26    1
    14    26    27    1
    15    27    28    1
    16    28    29    1
    17    29    30    1
    18    30    31    1
    19     2     1    1
    20     2     3    1
    21     3     4    1
    22     4     5    1
    23     5     6    1
    24     6     7   ar
    25     7     8   ar
    26     8     9   ar
    27     9    10   ar
    28    10    11   ar
    29    21    22    1
    30    18    13   ar
    31    31    26    1
    32    11     2    1
    33    22    16    1
    34    11     6   ar
    35    20    23    1
    36    29    32    1
@<TRIPOS>MOLECULE
*****
 32 36 0 0 0
SMALL
GASTEIGER

@<TRIPOS>ATOM
      1 N          63.4548   90.5556   11.6106 N.3     1  UNL1       -0.2679
      2 C          64.4467   91.6792   11.6691 C.3     1  UNL1        0.0978
      3 C          64.8180   92.4178   10.4174 C.3     1  UNL1        0.0224
      4 C          65.8100   93.5415   10.4760 C.3     1  UNL1        0.0065
      5 C          66.4306   93.9266   11.7861 C.3     1  UNL1        0.0277
      6 C          66.0593   93.1880   13.0378 C.ar    1  UNL1       -0.0073
      7 C          66.6799   93.5731   14.3479 C.ar    1  UNL1       -0.0015
      8 C          66.3086   92.8346   15.5996 C.ar    1  UNL1        0.0203
      9 C          65.3167   91.7109   15.5411 C.ar    1  UNL1        0.0985
     10 N          64.6961   91.3258   14.2309 N.ar    1  UNL1       -0.2471
     11 C          65.0674   92.0644   12.9793 C.ar    1  UNL1        0.0695
     12 C          62.9540   89.9304   12.8789 C.3     1  UNL1        0.0886
     13 C          64.0304   83.1594   13.3739 C.ar    1  UNL1       -0.0003
     14 C          63.2006   83.4369   12.1556 C.ar    1  UNL1       -0.0003
     15 C          62.8194   84.8466   11.8129 C.ar    1  UNL1       -0.0045
     16 C          63.2680   85.9788   12.6886 C.ar    1  UNL1       -0.0234
     17 C          64.0978   85.7013   13.9069 C.ar    1  UNL1       -0.0103
     18 C          64.4790   84.2916   14.2496 C.ar    1  UNL1       -0.0032
     19 C          64.5464   86.8336   14.7827 C.3     1  UNL1        0.0953
     20 N          64.1651   88.2433   14.4400 N.3     1  UNL1       -0.2934
     21 C          63.3353   88.5207   13.2216 C.3     1  UNL1        0.0748
     22 C          62.8867   87.3885   12.3459 C.3     1  UNL1        0.0432
     23 H          65.0347   88.7648   14.3290 H       1  UNL1        0.1236
     24 C          62.9636   90.0570   10.2839 C.3     1  UNL1        0.0724
     25 C          61.4923   89.8938   10.0420 C.3     1  UNL1        0.0174
     26 C          60.9847   88.7057    9.2799 C.3     1  UNL1        0.0041
     27 C          59.7443   88.8244    8.4448 C.3     1  UNL1        0.0172
     28 C          59.2368   87.6364    7.6826 C.3     1  UNL1        0.0686
     29 N          59.9697   86.3296    7.7556 N.3     1  UNL1       -0.2975
     30 C          61.2100   86.2109    8.5907 C.3     1  UNL1        0.0686
     31 C          61.7176   87.3990    9.3528 C.3     1  UNL1        0.0172
     32 H          60.2331   86.0860    6.8008 H       1  UNL1        0.1232
@<TRIPOS>BOND
     1    13    14   ar
     2    14    15   ar
     3    15    16   ar
     4    16    17   ar
     5    17    18   ar
     6    17    19    1
     7    19    20    1
     8    20    21    1
     9    21    12    1
    10    12     1    1
    11     1    24    1
    12    24    25    1
    13    25    26    1
    14    26    27    1
    15    27    28    1
    16    28    29    1
    17    29    30    1
    18    30    31    1
    19     2     1    1
    20     2     3    1
    21     3     4    1
    22     4     5    1
    23     5     6    1
    24     6     7   ar
    25     7     8   ar
    26     8     9   ar
    27     9    10   ar
    28    10    11   ar
    29    21    22    1
    30    18    13   ar
    31    31    26    1
    32    11     2    1
    33    22    16    1
    34    11     6   ar
    35    20    23    1
    36    29    32    1
@<TRIPOS>MOLECULE
*****
 32 36 0 0 0
SMALL
GASTEIGER

@<TRIPOS>ATOM
      1 N          63.7794   89.8959   13.5863 N.3     1  UNL1       -0.2679
      2 C          64.6919   91.0418   13.9087 C.3     1  UNL1        0.0978
      3 C          65.1877   91.2340   15.3113 C.3     1  UNL1        0.0224
      4 C          66.1003   92.3801   15.6338 C.3     1  UNL1        0.0065
      5 C          66.5171   93.3337   14.5536 C.3     1  UNL1        0.0277
      6 C          66.0214   93.1414   13.1510 C.ar    1  UNL1       -0.0073
      7 C          66.4382   94.0951   12.0709 C.ar    1  UNL1       -0.0015
      8 C          65.9425   93.9028   10.6683 C.ar    1  UNL1        0.0203
      9 C          65.0299   92.7569   10.3458 C.ar    1  UNL1        0.0985
     10 N          64.6131   91.8032   11.4260 N.ar    1  UNL1       -0.2471
     11 C          65.1088   91.9955   12.8286 C.ar    1  UNL1        0.0695
     12 C          62.3174   90.1425   13.3585 C.3     1  UNL1        0.0886
     13 C          60.0969   86.9871    7.6697 C.ar    1  UNL1       -0.0003
     14 C          61.1187   86.1209    8.3446 C.ar    1  UNL1       -0.0003
     15 C          61.7672   86.5787    9.6173 C.ar    1  UNL1       -0.0045
     16 C          61.3938   87.9028   10.2152 C.ar    1  UNL1       -0.0234
     17 C          60.3720   88.7689    9.5403 C.ar    1  UNL1       -0.0103
     18 C          59.7235   88.3111    8.2675 C.ar    1  UNL1       -0.0032
     19 C          59.9986   90.0931   10.1381 C.3     1  UNL1        0.0953
     20 N          60.6470   90.5509   11.4109 N.3     1  UNL1       -0.2934
     21 C          61.6689   89.6846   12.0858 C.3     1  UNL1        0.0748
     22 C          62.0423   88.3606   11.4879 C.3     1  UNL1        0.0432
     23 H          59.8972   90.7019   12.0857 H       1  UNL1        0.1236
     24 C          64.3287   88.5033   13.4915 C.3     1  UNL1        0.0724
     25 C          64.2603   87.5877   14.6777 C.3     1  UNL1        0.0174
     26 C          63.9983   86.1239   14.4811 C.3     1  UNL1        0.0041
     27 C          63.5405   85.6166   13.1457 C.3     1  UNL1        0.0172
     28 C          63.2785   84.1528   12.9492 C.3     1  UNL1        0.0686
     29 N          63.4743   83.1963   14.0880 N.3     1  UNL1       -0.2975
     30 C          63.9320   83.7036   15.4233 C.3     1  UNL1        0.0686
     31 C          64.1940   85.1674   15.6199 C.3     1  UNL1        0.0172
     32 H          64.1643   82.5105   13.7813 H       1  UNL1        0.1232
@<TRIPOS>BOND
     1    13    14   ar
     2    14    15   ar
     3    15    16   ar
     4    16    17   ar
     5    17    18   ar
     6    17    19    1
     7    19    20    1
     8    20    21    1
     9    21    12    1
    10    12     1    1
    11     1    24    1
    12    24    25    1
    13    25    26    1
    14    26    27    1
    15    27    28    1
    16    28    29    1
    17    29    30    1
    18    30    31    1
    19     2     1    1
    20     2     3    1
    21     3     4    1
    22     4     5    1
    23     5     6    1
    24     6     7   ar
    25     7     8   ar
    26     8     9   ar
    27     9    10   ar
    28    10    11   ar
    29    21    22    1
    30    18    13   ar
    31    31    26    1
    32    11     2    1
    33    22    16    1
    34    11     6   ar
    35    20    23    1
    36    29    32    1
@<TRIPOS>MOLECULE
*****
 32 36 0 0 0
SMALL
GASTEIGER

@<TRIPOS>ATOM
      1 N          62.3758   89.3045   12.2739 N.3     1  UNL1       -0.2679
      2 C          63.2610   90.0749   13.2081 C.3     1  UNL1        0.0978
      3 C          63.2327   89.7836   14.6793 C.3     1  UNL1        0.0224
      4 C          64.1180   90.5541   15.6136 C.3     1  UNL1        0.0065
      5 C          65.0314   91.6158   15.0767 C.3     1  UNL1        0.0277
      6 C          65.0597   91.9071   13.6055 C.ar    1  UNL1       -0.0073
      7 C          65.9732   92.9688   13.0686 C.ar    1  UNL1       -0.0015
      8 C          66.0015   93.2601   11.5974 C.ar    1  UNL1        0.0203
      9 C          65.1163   92.4897   10.6632 C.ar    1  UNL1        0.0985
     10 N          64.2028   91.4280   11.2001 N.ar    1  UNL1       -0.2471
     11 C          64.1745   91.1367   12.6712 C.ar    1  UNL1        0.0695
     12 C          62.9098   88.0999   11.5571 C.3     1  UNL1        0.0886
     13 C          63.2495   81.6450   13.8957 C.ar    1  UNL1       -0.0003
     14 C          62.6318   81.6402   12.5288 C.ar    1  UNL1       -0.0003
     15 C          62.4403   82.9302   11.7877 C.ar    1  UNL1       -0.0045
     16 C          62.8665   84.2250   12.4135 C.ar    1  UNL1       -0.0234
     17 C          63.4842   84.2299   13.7803 C.ar    1  UNL1       -0.0103
     18 C          63.6757   82.9399   14.5214 C.ar    1  UNL1       -0.0032
     19 C          63.9105   85.5248   14.4062 C.3     1  UNL1        0.0953
     20 N          63.7190   86.8148   13.6651 N.3     1  UNL1       -0.2934
     21 C          63.1013   86.8099   12.2982 C.3     1  UNL1        0.0748
     22 C          62.6751   85.5150   11.6724 C.3     1  UNL1        0.0432
     23 H          64.6415   87.2393   13.5698 H       1  UNL1        0.1236
     24 C          60.9566   89.7387   12.0564 C.3     1  UNL1        0.0724
     25 C          60.5173   90.2167   10.7042 C.3     1  UNL1        0.0174
     26 C          60.1203   89.2254    9.6508 C.3     1  UNL1        0.0041
     27 C          59.8132   89.6926    8.2588 C.3     1  UNL1        0.0172
     28 C          59.4162   88.7013    7.2054 C.3     1  UNL1        0.0686
     29 N          59.3261   87.2427    7.5440 N.3     1  UNL1       -0.2975
     30 C          59.6331   86.7756    8.9359 C.3     1  UNL1        0.0686
     31 C          60.0302   87.7669    9.9893 C.3     1  UNL1        0.0172
     32 H          59.9704   86.7556    6.9211 H       1  UNL1        0.1232
@<TRIPOS>BOND
     1    13    14   ar
     2    14    15   ar
     3    15    16   ar
     4    16    17   ar
     5    17    18   ar
     6    17    19    1
     7    19    20    1
     8    20    21    1
     9    21    12    1
    10    12     1    1
    11     1    24    1
    12    24    25    1
    13    25    26    1
    14    26    27    1
    15    27    28    1
    16    28    29    1
    17    29    30    1
    18    30    31    1
    19     2     1    1
    20     2     3    1
    21     3     4    1
    22     4     5    1
    23     5     6    1
    24     6     7   ar
    25     7     8   ar
    26     8     9   ar
    27     9    10   ar
    28    10    11   ar
    29    21    22    1
    30    18    13   ar
    31    31    26    1
    32    11     2    1
    33    22    16    1
    34    11     6   ar
    35    20    23    1
    36    29    32    1
@<TRIPOS>MOLECULE
*****
 32 36 0 0 0
SMALL
GASTEIGER

@<TRIPOS>ATOM
      1 N          62.9436   88.6328   12.3271 N.3     1  UNL1       -0.2679
      2 C          63.4939   87.4925   13.1313 C.3     1  UNL1        0.0978
      3 C          64.2683   87.7649   14.3867 C.3     1  UNL1        0.0224
      4 C          64.8186   86.6245   15.1909 C.3     1  UNL1        0.0065
      5 C          64.5945   85.2117   14.7396 C.3     1  UNL1        0.0277
      6 C          63.8200   84.9392   13.4842 C.ar    1  UNL1       -0.0073
      7 C          63.5959   83.5264   13.0330 C.ar    1  UNL1       -0.0015
      8 C          62.8215   83.2539   11.7776 C.ar    1  UNL1        0.0203
      9 C          62.2712   84.3943   10.9734 C.ar    1  UNL1        0.0985
     10 N          62.4953   85.8071   11.4247 N.ar    1  UNL1       -0.2471
     11 C          63.2697   86.0796   12.6801 C.ar    1  UNL1        0.0695
     12 C          62.6095   89.9318   12.9988 C.3     1  UNL1        0.0886
     13 C          68.0891   92.9911   15.8033 C.ar    1  UNL1       -0.0003
     14 C          68.4243   92.5713   14.4029 C.ar    1  UNL1       -0.0003
     15 C          67.3954   91.8755   13.5619 C.ar    1  UNL1       -0.0045
     16 C          66.0313   91.5995   14.1213 C.ar    1  UNL1       -0.0234
     17 C          65.6961   92.0193   15.5218 C.ar    1  UNL1       -0.0103
     18 C          66.7250   92.7151   16.3628 C.ar    1  UNL1       -0.0032
     19 C          64.3320   91.7433   16.0813 C.3     1  UNL1        0.0953
     20 N          63.3031   91.0475   15.2403 N.3     1  UNL1       -0.2934
     21 C          63.6384   90.6276   13.8398 C.3     1  UNL1        0.0748
     22 C          65.0025   90.9036   13.2803 C.3     1  UNL1        0.0432
     23 H          62.5019   91.6755   15.1757 H       1  UNL1        0.1236
     24 C          62.7274   88.4743   10.8513 C.3     1  UNL1        0.0724
     25 C          61.7066   89.3187   10.1479 C.3     1  UNL1        0.0174
     26 C          60.7284   88.6831    9.2050 C.3     1  UNL1        0.0041
     27 C          60.0349   89.5172    8.1689 C.3     1  UNL1        0.0172
     28 C          59.0567   88.8815    7.2261 C.3     1  UNL1        0.0686
     29 N          58.7719   87.4117    7.3193 N.3     1  UNL1       -0.2975
     30 C          59.4653   86.5777    8.3553 C.3     1  UNL1        0.0686
     31 C          60.4436   87.2133    9.2982 C.3     1  UNL1        0.0172
     32 H          59.0055   87.0084    6.4120 H       1  UNL1        0.1232
@<TRIPOS>BOND
     1    13    14   ar
     2    14    15   ar
     3    15    16   ar
     4    16    17   ar
     5    17    18   ar
     6    17    19    1
     7    19    20    1
     8    20    21    1
     9    21    12    1
    10    12     1    1
    11     1    24    1
    12    24    25    1
    13    25    26    1
    14    26    27    1
    15    27    28    1
    16    28    29    1
    17    29    30    1
    18    30    31    1
    19     2     1    1
    20     2     3    1
    21     3     4    1
    22     4     5    1
    23     5     6    1
    24     6     7   ar
    25     7     8   ar
    26     8     9   ar
    27     9    10   ar
    28    10    11   ar
    29    21    22    1
    30    18    13   ar
    31    31    26    1
    32    11     2    1
    33    22    16    1
    34    11     6   ar
    35    20    23    1
    36    29    32    1
@<TRIPOS>MOLECULE
*****
 32 36 0 0 0
SMALL
GASTEIGER

@<TRIPOS>ATOM
      1 N          61.7321   87.8209   10.9331 N.3     1  UNL1       -0.2679
      2 C          60.8918   87.4167    9.7582 C.3     1  UNL1        0.0978
      3 C          59.5208   87.9990    9.5808 C.3     1  UNL1        0.0224
      4 C          58.6805   87.5947    8.4058 C.3     1  UNL1        0.0065
      5 C          59.2112   86.6082    7.4083 C.3     1  UNL1        0.0277
      6 C          60.5821   86.0260    7.5856 C.ar    1  UNL1       -0.0073
      7 C          61.1127   85.0395    6.5880 C.ar    1  UNL1       -0.0015
      8 C          62.4837   84.4572    6.7653 C.ar    1  UNL1        0.0203
      9 C          63.3240   84.8614    7.9402 C.ar    1  UNL1        0.0985
     10 N          62.7934   85.8478    8.9378 N.ar    1  UNL1       -0.2471
     11 C          61.4224   86.4301    8.7605 C.ar    1  UNL1        0.0695
     12 C          61.5992   89.1984   11.5117 C.3     1  UNL1        0.0886
     13 C          66.8666   92.6892   14.2171 C.ar    1  UNL1       -0.0003
     14 C          66.5400   93.2600   12.8689 C.ar    1  UNL1       -0.0003
     15 C          65.4212   92.6760   12.0582 C.ar    1  UNL1       -0.0045
     16 C          64.6290   91.5212   12.5957 C.ar    1  UNL1       -0.0234
     17 C          64.9556   90.9505   13.9438 C.ar    1  UNL1       -0.0103
     18 C          66.0744   91.5345   14.7545 C.ar    1  UNL1       -0.0032
     19 C          64.1634   89.7957   14.4814 C.3     1  UNL1        0.0953
     20 N          63.0446   89.2116   13.6707 N.3     1  UNL1       -0.2934
     21 C          62.7180   89.7824   12.3224 C.3     1  UNL1        0.0748
     22 C          63.5102   90.9372   11.7850 C.3     1  UNL1        0.0432
     23 H          62.1993   89.2898   14.2361 H       1  UNL1        0.1236
     24 C          62.7053   86.8476   11.5294 C.3     1  UNL1        0.0724
     25 C          62.2170   85.5399   12.0784 C.3     1  UNL1        0.0174
     26 C          62.9815   84.8527   13.1708 C.3     1  UNL1        0.0041
     27 C          63.8969   85.6438   14.0576 C.3     1  UNL1        0.0172
     28 C          64.6614   84.9567   15.1500 C.3     1  UNL1        0.0686
     29 N          64.5106   83.4785   15.3556 N.3     1  UNL1       -0.2975
     30 C          63.5952   82.6875   14.4688 C.3     1  UNL1        0.0686
     31 C          62.8307   83.3746   13.3764 C.3     1  UNL1        0.0172
     32 H          64.1809   83.3463   16.3118 H       1  UNL1        0.1232
@<TRIPOS>BOND
     1    13    14   ar
     2    14    15   ar
     3    15    16   ar
     4    16    17   ar
     5    17    18   ar
     6    17    19    1
     7    19    20    1
     8    20    21    1
     9    21    12    1
    10    12     1    1
    11     1    24    1
    12    24    25    1
    13    25    26    1
    14    26    27    1
    15    27    28    1
    16    28    29    1
    17    29    30    1
    18    30    31    1
    19     2     1    1
    20     2     3    1
    21     3     4    1
    22     4     5    1
    23     5     6    1
    24     6     7   ar
    25     7     8   ar
    26     8     9   ar
    27     9    10   ar
    28    10    11   ar
    29    21    22    1
    30    18    13   ar
    31    31    26    1
    32    11     2    1
    33    22    16    1
    34    11     6   ar
    35    20    23    1
    36    29    32    1
