@<TRIPOS>MOLECULE
*****
 30 33 0 0 0
SMALL
GASTEIGER

@<TRIPOS>ATOM
      1 C          62.3085   88.5781   11.2408 C.ar    1  UNL1        0.0284
      2 C          63.1715   88.6687   12.4643 C.ar    1  UNL1        0.0027
      3 C          63.9065   89.9398   12.7714 C.ar    1  UNL1        0.0339
      4 C          63.7784   91.1203   11.8549 C.ar    1  UNL1        0.1311
      5 N          62.9153   91.0297   10.6314 N.ar    1  UNL1       -0.2035
      6 C          62.1803   89.7587   10.3243 C.ar    1  UNL1        0.2196
      7 F          61.3173   89.6682    9.1008 F       1  UNL1       -0.1835
      8 N          64.5133   92.3914   12.1620 N.pl3   1  UNL1       -0.3143
      9 H          64.0112   93.2163   12.3537 H       1  UNL1        0.1485
     10 C          66.0131   92.4056   12.1770 C.3     1  UNL1        0.1200
     11 C          66.7698   92.9468   11.0004 C.ar    1  UNL1        0.0506
     12 C          67.6808   92.0489   10.2170 C.ar    1  UNL1        0.0036
     13 C          68.4375   92.5901    9.0404 C.ar    1  UNL1        0.0206
     14 C          68.2832   94.0294    8.6471 C.ar    1  UNL1        0.1020
     15 N          67.3722   94.9274    9.4306 N.ar    1  UNL1       -0.2104
     16 C          66.6155   94.3861   10.6071 C.ar    1  UNL1        0.2224
     17 O          65.7045   95.2842   11.3905 O.3     1  UNL1       -0.4563
     18 C          65.9610   96.7616   11.4312 C.3     1  UNL1        0.2542
     19 C          61.5736   87.3071   10.9338 C.3     1  UNL1        0.0603
     20 C          63.7663   83.3701   12.7800 C.2     1  UNL1        0.1673
     21 C          64.3583   82.4845   11.7239 C.2     1  UNL1        0.2683
     22 N          64.2355   82.8582   10.2764 N.2     1  UNL1       -0.0278
     23 C          63.5208   84.1174    9.8849 C.2     1  UNL1        0.3719
     24 N          63.2439   84.7405    8.5488 N.2     1  UNL1       -0.0311
     25 C          62.4808   86.0112    8.7791 C.2     1  UNL1        0.2319
     26 C          62.2860   86.1735   10.2575 C.2     1  UNL1        0.0329
     27 C          62.9288   85.0030   10.9409 C.2     1  UNL1        0.0739
     28 C          63.0516   84.6294   12.3885 C.3     1  UNL1        0.1019
     29 C          62.9389   83.5739   15.2343 C.3     1  UNL1        0.2522
     30 O          63.8890   82.9964   14.2275 O.2     1  UNL1       -0.4715
@<TRIPOS>BOND
     1    29    30    1
     2    30    20    1
     3    20    21    2
     4    21    22    1
     5    22    23    2
     6    23    24    1
     7    24    25    2
     8    25    26    1
     9    26    19    1
    10    19     1    1
    11     1     2   ar
    12     2     3   ar
    13     3     4   ar
    14     4     8    1
    15     8    10    1
    16    10    11    1
    17    11    12   ar
    18    12    13   ar
    19    13    14   ar
    20    14    15   ar
    21    15    16   ar
    22    16    17    1
    23    17    18    1
    24     4     5   ar
    25     5     6   ar
    26     6     7    1
    27    26    27    2
    28    27    28    1
    29    28    20    1
    30    27    23    1
    31     6     1   ar
    32    16    11   ar
    33     8     9    1
@<TRIPOS>MOLECULE
*****
 30 33 0 0 0
SMALL
GASTEIGER

@<TRIPOS>ATOM
      1 C          63.7104   88.3298   15.6486 C.ar    1  UNL1        0.0284
      2 C          64.3123   87.7285   14.4132 C.ar    1  UNL1        0.0027
      3 C          64.5386   86.2479   14.3334 C.ar    1  UNL1        0.0339
      4 C          64.1631   85.3684   15.4891 C.ar    1  UNL1        0.1311
      5 N          63.5612   85.9697   16.7245 N.ar    1  UNL1       -0.2035
      6 C          63.3349   87.4504   16.8043 C.ar    1  UNL1        0.2196
      7 F          62.7330   88.0516   18.0397 F       1  UNL1       -0.1835
      8 N          64.3894   83.8877   15.4093 N.pl3   1  UNL1       -0.3143
      9 H          65.2217   83.4973   15.7615 H       1  UNL1        0.1485
     10 C          63.3476   83.0019   14.7929 C.3     1  UNL1        0.1200
     11 C          63.4579   82.6062   13.3502 C.ar    1  UNL1        0.0506
     12 C          64.2157   83.4744   12.3901 C.ar    1  UNL1        0.0036
     13 C          64.3260   83.0786   10.9475 C.ar    1  UNL1        0.0206
     14 C          63.6784   81.8146   10.4649 C.ar    1  UNL1        0.1020
     15 N          62.9205   80.9463   11.4251 N.ar    1  UNL1       -0.2104
     16 C          62.8103   81.3421   12.8677 C.ar    1  UNL1        0.2224
     17 O          62.0524   80.4738   13.8278 O.3     1  UNL1       -0.4563
     18 C          60.6006   80.7406   14.0949 C.3     1  UNL1        0.2542
     19 C          63.4841   89.8105   15.7283 C.3     1  UNL1        0.0603
     20 C          62.8318   90.6700   10.9794 C.2     1  UNL1        0.1673
     21 C          63.7936   91.6834   10.4337 C.2     1  UNL1        0.2683
     22 N          64.8141   92.3110   11.3363 N.2     1  UNL1       -0.0278
     23 C          64.8728   91.9251   12.7846 C.2     1  UNL1        0.3719
     24 N          65.7626   92.3710   13.9069 N.2     1  UNL1       -0.0311
     25 C          65.3507   91.6331   15.1462 C.2     1  UNL1        0.2319
     26 C          64.2064   90.7312   14.7899 C.2     1  UNL1        0.0329
     27 C          63.9110   90.9117   13.3303 C.2     1  UNL1        0.0739
     28 C          62.8905   90.2841   12.4277 C.3     1  UNL1        0.1019
     29 C          60.3612   90.0561   10.4605 C.3     1  UNL1        0.2522
     30 O          61.8112   90.0424   10.0768 O.2     1  UNL1       -0.4715
@<TRIPOS>BOND
     1    29    30    1
     2    30    20    1
     3    20    21    2
     4    21    22    1
     5    22    23    2
     6    23    24    1
     7    24    25    2
     8    25    26    1
     9    26    19    1
    10    19     1    1
    11     1     2   ar
    12     2     3   ar
    13     3     4   ar
    14     4     8    1
    15     8    10    1
    16    10    11    1
    17    11    12   ar
    18    12    13   ar
    19    13    14   ar
    20    14    15   ar
    21    15    16   ar
    22    16    17    1
    23    17    18    1
    24     4     5   ar
    25     5     6   ar
    26     6     7    1
    27    26    27    2
    28    27    28    1
    29    28    20    1
    30    27    23    1
    31     6     1   ar
    32    16    11   ar
    33     8     9    1
@<TRIPOS>MOLECULE
*****
 30 33 0 0 0
SMALL
GASTEIGER

@<TRIPOS>ATOM
      1 C          63.0462   90.5725   12.1076 C.ar    1  UNL1        0.0284
      2 C          63.5016   91.2615   10.8554 C.ar    1  UNL1        0.0027
      3 C          64.7048   92.1566   10.8870 C.ar    1  UNL1        0.0339
      4 C          65.4527   92.3629   12.1709 C.ar    1  UNL1        0.1311
      5 N          64.9972   91.6739   13.4231 N.ar    1  UNL1       -0.2035
      6 C          63.7940   90.7787   13.3915 C.ar    1  UNL1        0.2196
      7 F          63.3387   90.0898   14.6437 F       1  UNL1       -0.1835
      8 N          66.6558   93.2581   12.2025 N.pl3   1  UNL1       -0.3143
      9 H          67.5479   92.8780   12.3728 H       1  UNL1        0.1485
     10 C          66.4999   94.7324   11.9746 C.3     1  UNL1        0.1200
     11 C          66.4614   95.2753   10.5768 C.ar    1  UNL1        0.0506
     12 C          65.4447   96.3127   10.2028 C.ar    1  UNL1        0.0036
     13 C          65.4062   96.8556    8.8050 C.ar    1  UNL1        0.0206
     14 C          66.3845   96.3610    7.7811 C.ar    1  UNL1        0.1020
     15 N          67.4013   95.3235    8.1552 N.ar    1  UNL1       -0.2104
     16 C          67.4397   94.7807    9.5529 C.ar    1  UNL1        0.2224
     17 O          68.4566   93.7432    9.9269 O.3     1  UNL1       -0.4563
     18 C          68.4550   92.4097    9.2400 C.3     1  UNL1        0.2542
     19 C          61.8431   89.6773   12.0759 C.3     1  UNL1        0.0603
     20 C          59.7096   88.0432    8.0147 C.2     1  UNL1        0.1673
     21 C          60.0710   86.6221    7.6985 C.2     1  UNL1        0.2683
     22 N          61.0010   85.8663    8.6006 N.2     1  UNL1       -0.0278
     23 C          61.5696   86.5315    9.8188 C.2     1  UNL1        0.3719
     24 N          62.5042   86.0427   10.8854 N.2     1  UNL1       -0.0311
     25 C          62.7204   87.1616   11.8608 C.2     1  UNL1        0.2319
     26 C          61.9194   88.3420   11.3970 C.2     1  UNL1        0.0329
     27 C          61.2082   87.9525   10.1350 C.2     1  UNL1        0.0739
     28 C          60.2782   88.7084    9.2329 C.3     1  UNL1        0.1019
     29 C          59.3237   89.8287    6.1673 C.3     1  UNL1        0.2522
     30 O          58.7796   88.7990    7.1126 O.2     1  UNL1       -0.4715
@<TRIPOS>BOND
     1    29    30    1
     2    30    20    1
     3    20    21    2
     4    21    22    1
     5    22    23    2
     6    23    24    1
     7    24    25    2
     8    25    26    1
     9    26    19    1
    10    19     1    1
    11     1     2   ar
    12     2     3   ar
    13     3     4   ar
    14     4     8    1
    15     8    10    1
    16    10    11    1
    17    11    12   ar
    18    12    13   ar
    19    13    14   ar
    20    14    15   ar
    21    15    16   ar
    22    16    17    1
    23    17    18    1
    24     4     5   ar
    25     5     6   ar
    26     6     7    1
    27    26    27    2
    28    27    28    1
    29    28    20    1
    30    27    23    1
    31     6     1   ar
    32    16    11   ar
    33     8     9    1
@<TRIPOS>MOLECULE
*****
 30 33 0 0 0
SMALL
GASTEIGER

@<TRIPOS>ATOM
      1 C          62.4490   89.3927   10.8698 C.ar    1  UNL1        0.0284
      2 C          63.1197   88.5677   11.9279 C.ar    1  UNL1        0.0027
      3 C          62.9449   87.0780   11.9404 C.ar    1  UNL1        0.0339
      4 C          62.0995   86.4131   10.8948 C.ar    1  UNL1        0.1311
      5 N          61.4289   87.2382    9.8367 N.ar    1  UNL1       -0.2035
      6 C          61.6036   88.7279    9.8241 C.ar    1  UNL1        0.2196
      7 F          60.9329   89.5528    8.7660 F       1  UNL1       -0.1835
      8 N          61.9248   84.9234   10.9073 N.pl3   1  UNL1       -0.3143
      9 H          61.0584   84.5273   10.6592 H       1  UNL1        0.1485
     10 C          63.0703   84.0372   11.2980 C.3     1  UNL1        0.1200
     11 C          62.8384   82.8715   12.2129 C.ar    1  UNL1        0.0506
     12 C          62.9068   81.4722   11.6770 C.ar    1  UNL1        0.0036
     13 C          62.6750   80.3064   12.5920 C.ar    1  UNL1        0.0206
     14 C          62.3747   80.5399   14.0430 C.ar    1  UNL1        0.1020
     15 N          62.3064   81.9393   14.5789 N.ar    1  UNL1       -0.2104
     16 C          62.5382   83.1050   13.6639 C.ar    1  UNL1        0.2224
     17 O          62.4698   84.5044   14.1999 O.3     1  UNL1       -0.4563
     18 C          63.6034   85.0511   15.0161 C.3     1  UNL1        0.2542
     19 C          62.6237   90.8824   10.8573 C.3     1  UNL1        0.0603
     20 C          64.1849   91.1945   15.4596 C.2     1  UNL1        0.1673
     21 C          65.5011   91.9036   15.5810 C.2     1  UNL1        0.2683
     22 N          66.1874   92.4264   14.3540 N.2     1  UNL1       -0.0278
     23 C          65.5575   92.2402   13.0055 C.2     1  UNL1        0.3719
     24 N          65.9952   92.6441   11.6288 N.2     1  UNL1       -0.0311
     25 C          64.9494   92.1846   10.6565 C.2     1  UNL1        0.2319
     26 C          63.8655   91.4967   11.4322 C.2     1  UNL1        0.0329
     27 C          64.2413   91.5311   12.8840 C.2     1  UNL1        0.0739
     28 C          63.5550   91.0083   14.1111 C.3     1  UNL1        0.1019
     29 C          63.0688   89.2361   16.7514 C.3     1  UNL1        0.2522
     30 O          63.4987   90.6717   16.6867 O.2     1  UNL1       -0.4715
@<TRIPOS>BOND
     1    29    30    1
     2    30    20    1
     3    20    21    2
     4    21    22    1
     5    22    23    2
     6    23    24    1
     7    24    25    2
     8    25    26    1
     9    26    19    1
    10    19     1    1
    11     1     2   ar
    12     2     3   ar
    13     3     4   ar
    14     4     8    1
    15     8    10    1
    16    10    11    1
    17    11    12   ar
    18    12    13   ar
    19    13    14   ar
    20    14    15   ar
    21    15    16   ar
    22    16    17    1
    23    17    18    1
    24     4     5   ar
    25     5     6   ar
    26     6     7    1
    27    26    27    2
    28    27    28    1
    29    28    20    1
    30    27    23    1
    31     6     1   ar
    32    16    11   ar
    33     8     9    1
@<TRIPOS>MOLECULE
*****
 30 33 0 0 0
SMALL
GASTEIGER

@<TRIPOS>ATOM
      1 C          62.3775   88.7472   11.1659 C.ar    1  UNL1        0.0284
      2 C          62.1986   89.8937   10.2155 C.ar    1  UNL1        0.0027
      3 C          62.9625   91.1676   10.4246 C.ar    1  UNL1        0.0339
      4 C          63.9053   91.2949   11.5843 C.ar    1  UNL1        0.1311
      5 N          64.0842   90.1483   12.5348 N.ar    1  UNL1       -0.2035
      6 C          63.3204   88.8744   12.3256 C.ar    1  UNL1        0.2196
      7 F          63.4994   87.7279   13.2761 F       1  UNL1       -0.1835
      8 N          64.6691   92.5688   11.7935 N.pl3   1  UNL1       -0.3143
      9 H          64.2992   93.2755   12.3706 H       1  UNL1        0.1485
     10 C          65.9966   92.7660   11.1234 C.3     1  UNL1        0.1200
     11 C          66.3935   94.1262   10.6311 C.ar    1  UNL1        0.0506
     12 C          65.8815   95.3537   11.3246 C.ar    1  UNL1        0.0036
     13 C          66.2784   96.7139   10.8323 C.ar    1  UNL1        0.0206
     14 C          67.1874   96.8465    9.6465 C.ar    1  UNL1        0.1020
     15 N          67.6994   95.6189    8.9530 N.ar    1  UNL1       -0.2104
     16 C          67.3025   94.2588    9.4453 C.ar    1  UNL1        0.2224
     17 O          67.8145   93.0312    8.7517 O.3     1  UNL1       -0.4563
     18 C          69.0433   92.3389    9.2623 C.3     1  UNL1        0.2542
     19 C          61.6137   87.4733   10.9567 C.3     1  UNL1        0.0603
     20 C          63.6403   83.3798   12.6456 C.2     1  UNL1        0.1673
     21 C          64.1649   82.4961   11.5529 C.2     1  UNL1        0.2683
     22 N          64.0319   82.9168   10.1193 N.2     1  UNL1       -0.0278
     23 C          63.3744   84.2211    9.7783 C.2     1  UNL1        0.3719
     24 N          63.1025   84.8953    8.4662 N.2     1  UNL1       -0.0311
     25 C          62.4098   86.1956    8.7479 C.2     1  UNL1        0.2319
     26 C          62.2536   86.3251   10.2341 C.2     1  UNL1        0.0329
     27 C          62.8498   85.1048   10.8709 C.2     1  UNL1        0.0739
     28 C          62.9828   84.6841   12.3046 C.3     1  UNL1        0.1019
     29 C          62.5946   83.0568   15.0019 C.3     1  UNL1        0.2522
     30 O          63.7732   82.9591   14.0792 O.2     1  UNL1       -0.4715
@<TRIPOS>BOND
     1    29    30    1
     2    30    20    1
     3    20    21    2
     4    21    22    1
     5    22    23    2
     6    23    24    1
     7    24    25    2
     8    25    26    1
     9    26    19    1
    10    19     1    1
    11     1     2   ar
    12     2     3   ar
    13     3     4   ar
    14     4     8    1
    15     8    10    1
    16    10    11    1
    17    11    12   ar
    18    12    13   ar
    19    13    14   ar
    20    14    15   ar
    21    15    16   ar
    22    16    17    1
    23    17    18    1
    24     4     5   ar
    25     5     6   ar
    26     6     7    1
    27    26    27    2
    28    27    28    1
    29    28    20    1
    30    27    23    1
    31     6     1   ar
    32    16    11   ar
    33     8     9    1
@<TRIPOS>MOLECULE
*****
 30 33 0 0 0
SMALL
GASTEIGER

@<TRIPOS>ATOM
      1 C          63.0985   90.3271   12.0387 C.ar    1  UNL1        0.0284
      2 C          63.8761   90.4178   13.3181 C.ar    1  UNL1        0.0027
      3 C          65.0391   91.3592   13.4239 C.ar    1  UNL1        0.0339
      4 C          65.4246   92.2098   12.2501 C.ar    1  UNL1        0.1311
      5 N          64.6469   92.1191   10.9705 N.ar    1  UNL1       -0.2035
      6 C          63.4839   91.1777   10.8648 C.ar    1  UNL1        0.2196
      7 F          62.7063   91.0871    9.5853 F       1  UNL1       -0.1835
      8 N          66.5877   93.1512   12.3558 N.pl3   1  UNL1       -0.3143
      9 H          67.4827   92.8050   12.5754 H       1  UNL1        0.1485
     10 C          66.3870   94.6199   12.1268 C.3     1  UNL1        0.1200
     11 C          66.3978   95.1698   10.7313 C.ar    1  UNL1        0.0506
     12 C          65.4890   96.3057   10.3656 C.ar    1  UNL1        0.0036
     13 C          65.4998   96.8555    8.9701 C.ar    1  UNL1        0.0206
     14 C          66.4195   96.2695    7.9402 C.ar    1  UNL1        0.1020
     15 N          67.3284   95.1336    8.3059 N.ar    1  UNL1       -0.2104
     16 C          67.3175   94.5838    9.7014 C.ar    1  UNL1        0.2224
     17 O          68.2265   93.4478   10.0670 O.3     1  UNL1       -0.4563
     18 C          68.6784   92.4801    9.0139 C.3     1  UNL1        0.2542
     19 C          61.9354   89.3858   11.9330 C.3     1  UNL1        0.0603
     20 C          63.5657   84.9333   13.0440 C.2     1  UNL1        0.1673
     21 C          63.4977   83.9827   11.8857 C.2     1  UNL1        0.2683
     22 N          62.9671   84.4493   10.5626 N.2     1  UNL1       -0.0278
     23 C          62.5044   85.8666   10.3977 C.2     1  UNL1        0.3719
     24 N          61.9380   86.6073    9.2228 N.2     1  UNL1       -0.0311
     25 C          61.6559   88.0157    9.6549 C.2     1  UNL1        0.2319
     26 C          62.0480   88.1455   11.0969 C.2     1  UNL1        0.0329
     27 C          62.5724   86.8172   11.5560 C.2     1  UNL1        0.0739
     28 C          63.1030   86.3506   12.8791 C.3     1  UNL1        0.1019
     29 C          63.3100   83.4875   15.1874 C.3     1  UNL1        0.2522
     30 O          64.0963   84.4667   14.3671 O.2     1  UNL1       -0.4715
@<TRIPOS>BOND
     1    29    30    1
     2    30    20    1
     3    20    21    2
     4    21    22    1
     5    22    23    2
     6    23    24    1
     7    24    25    2
     8    25    26    1
     9    26    19    1
    10    19     1    1
    11     1     2   ar
    12     2     3   ar
    13     3     4   ar
    14     4     8    1
    15     8    10    1
    16    10    11    1
    17    11    12   ar
    18    12    13   ar
    19    13    14   ar
    20    14    15   ar
    21    15    16   ar
    22    16    17    1
    23    17    18    1
    24     4     5   ar
    25     5     6   ar
    26     6     7    1
    27    26    27    2
    28    27    28    1
    29    28    20    1
    30    27    23    1
    31     6     1   ar
    32    16    11   ar
    33     8     9    1
@<TRIPOS>MOLECULE
*****
 30 33 0 0 0
SMALL
GASTEIGER

@<TRIPOS>ATOM
      1 C          62.1843   88.1846   11.1392 C.ar    1  UNL1        0.0284
      2 C          63.0274   88.0811   12.3755 C.ar    1  UNL1        0.0027
      3 C          63.7160   89.2984   12.9178 C.ar    1  UNL1        0.0339
      4 C          63.5615   90.6192   12.2238 C.ar    1  UNL1        0.1311
      5 N          62.7184   90.7226   10.9874 N.ar    1  UNL1       -0.2035
      6 C          62.0298   89.5054   10.4451 C.ar    1  UNL1        0.2196
      7 F          61.1867   89.6089    9.2088 F       1  UNL1       -0.1835
      8 N          64.2501   91.8364   12.7661 N.pl3   1  UNL1       -0.3143
      9 H          63.7222   92.5583   13.1777 H       1  UNL1        0.1485
     10 C          65.7431   91.9539   12.6811 C.3     1  UNL1        0.1200
     11 C          66.5488   92.1891   13.9243 C.ar    1  UNL1        0.0506
     12 C          68.0339   92.3783   13.8310 C.ar    1  UNL1        0.0036
     13 C          68.8396   92.6136   15.0742 C.ar    1  UNL1        0.0206
     14 C          68.1602   92.6596   16.4107 C.ar    1  UNL1        0.1020
     15 N          66.6751   92.4704   16.5040 N.ar    1  UNL1       -0.2104
     16 C          65.8695   92.2351   15.2609 C.ar    1  UNL1        0.2224
     17 O          64.3843   92.0459   15.3542 O.3     1  UNL1       -0.4563
     18 C          63.8189   90.9754   16.2398 C.3     1  UNL1        0.2542
     19 C          61.4957   86.9673   10.5969 C.3     1  UNL1        0.0603
     20 C          63.5505   83.2194   12.9309 C.2     1  UNL1        0.1673
     21 C          64.2784   82.2874   12.0081 C.2     1  UNL1        0.2683
     22 N          64.3132   82.5663   10.5347 N.2     1  UNL1       -0.0278
     23 C          63.6200   83.7771    9.9840 C.2     1  UNL1        0.3719
     24 N          63.4833   84.3071    8.5874 N.2     1  UNL1       -0.0311
     25 C          62.6709   85.5667    8.6470 C.2     1  UNL1        0.2319
     26 C          62.3055   85.8151   10.0804 C.2     1  UNL1        0.0329
     27 C          62.8921   84.7091   10.9067 C.2     1  UNL1        0.0739
     28 C          62.8573   84.4303   12.3802 C.3     1  UNL1        0.1019
     29 C          62.9997   83.9818   15.3527 C.3     1  UNL1        0.2522
     30 O          63.5158   82.9406   14.4043 O.2     1  UNL1       -0.4715
@<TRIPOS>BOND
     1    29    30    1
     2    30    20    1
     3    20    21    2
     4    21    22    1
     5    22    23    2
     6    23    24    1
     7    24    25    2
     8    25    26    1
     9    26    19    1
    10    19     1    1
    11     1     2   ar
    12     2     3   ar
    13     3     4   ar
    14     4     8    1
    15     8    10    1
    16    10    11    1
    17    11    12   ar
    18    12    13   ar
    19    13    14   ar
    20    14    15   ar
    21    15    16   ar
    22    16    17    1
    23    17    18    1
    24     4     5   ar
    25     5     6   ar
    26     6     7    1
    27    26    27    2
    28    27    28    1
    29    28    20    1
    30    27    23    1
    31     6     1   ar
    32    16    11   ar
    33     8     9    1
@<TRIPOS>MOLECULE
*****
 30 33 0 0 0
SMALL
GASTEIGER

@<TRIPOS>ATOM
      1 C          62.7661   84.8276    9.6655 C.ar    1  UNL1        0.0284
      2 C          62.0700   85.3878   10.8702 C.ar    1  UNL1        0.0027
      3 C          61.1263   86.5442   10.7211 C.ar    1  UNL1        0.0339
      4 C          60.8788   87.1405    9.3671 C.ar    1  UNL1        0.1311
      5 N          61.5750   86.5802    8.1623 N.ar    1  UNL1       -0.2035
      6 C          62.5186   85.4238    8.3114 C.ar    1  UNL1        0.2196
      7 F          63.2147   84.8636    7.1066 F       1  UNL1       -0.1835
      8 N          59.9352   88.2969    9.2180 N.pl3   1  UNL1       -0.3143
      9 H          58.9838   88.1340    9.0241 H       1  UNL1        0.1485
     10 C          60.4411   89.7014    9.3641 C.3     1  UNL1        0.1200
     11 C          61.4476   90.0292   10.4269 C.ar    1  UNL1        0.0506
     12 C          62.7116   90.7515   10.0657 C.ar    1  UNL1        0.0036
     13 C          63.7181   91.0793   11.1285 C.ar    1  UNL1        0.0206
     14 C          63.4606   90.6847   12.5526 C.ar    1  UNL1        0.1020
     15 N          62.1965   89.9623   12.9138 N.ar    1  UNL1       -0.2104
     16 C          61.1901   89.6346   11.8510 C.ar    1  UNL1        0.2224
     17 O          59.9261   88.9121   12.2123 O.3     1  UNL1       -0.4563
     18 C          58.6735   89.6877   12.4946 C.3     1  UNL1        0.2542
     19 C          63.7097   83.6712    9.8146 C.3     1  UNL1        0.0603
     20 C          64.3555   84.3788   14.5894 C.2     1  UNL1        0.1673
     21 C          64.0987   83.1437   15.4009 C.2     1  UNL1        0.2683
     22 N          63.6898   81.8709   14.7207 N.2     1  UNL1       -0.0278
     23 C          63.5377   81.8332   13.2289 C.2     1  UNL1        0.3719
     24 N          63.1502   80.7319   12.2871 N.2     1  UNL1       -0.0311
     25 C          63.1675   81.2864   10.8934 C.2     1  UNL1        0.2319
     26 C          63.5657   82.7303   10.9739 C.2     1  UNL1        0.0329
     27 C          63.7944   83.0682   12.4174 C.2     1  UNL1        0.0739
     28 C          64.2033   84.3411   13.0977 C.3     1  UNL1        0.1019
     29 C          64.3942   86.9753   14.6692 C.3     1  UNL1        0.2522
     30 O          64.7644   85.6516   15.2696 O.2     1  UNL1       -0.4715
@<TRIPOS>BOND
     1    29    30    1
     2    30    20    1
     3    20    21    2
     4    21    22    1
     5    22    23    2
     6    23    24    1
     7    24    25    2
     8    25    26    1
     9    26    19    1
    10    19     1    1
    11     1     2   ar
    12     2     3   ar
    13     3     4   ar
    14     4     8    1
    15     8    10    1
    16    10    11    1
    17    11    12   ar
    18    12    13   ar
    19    13    14   ar
    20    14    15   ar
    21    15    16   ar
    22    16    17    1
    23    17    18    1
    24     4     5   ar
    25     5     6   ar
    26     6     7    1
    27    26    27    2
    28    27    28    1
    29    28    20    1
    30    27    23    1
    31     6     1   ar
    32    16    11   ar
    33     8     9    1
@<TRIPOS>MOLECULE
*****
 30 33 0 0 0
SMALL
GASTEIGER

@<TRIPOS>ATOM
      1 C          62.1002   88.2600   11.0235 C.ar    1  UNL1        0.0284
      2 C          61.7033   89.3594   10.0835 C.ar    1  UNL1        0.0027
      3 C          62.3046   90.7257   10.2307 C.ar    1  UNL1        0.0339
      4 C          63.3030   90.9925   11.3179 C.ar    1  UNL1        0.1311
      5 N          63.6999   89.8930   12.2579 N.ar    1  UNL1       -0.2035
      6 C          63.0986   88.5268   12.1108 C.ar    1  UNL1        0.2196
      7 F          63.4956   87.4274   13.0509 F       1  UNL1       -0.1835
      8 N          63.9044   92.3588   11.4650 N.pl3   1  UNL1       -0.3143
      9 H          63.3587   93.1023   11.8094 H       1  UNL1        0.1485
     10 C          65.3372   92.5922   11.0875 C.3     1  UNL1        0.1200
     11 C          66.4200   92.4209   12.1112 C.ar    1  UNL1        0.0506
     12 C          66.1300   92.6789   13.5601 C.ar    1  UNL1        0.0036
     13 C          67.2129   92.5076   14.5838 C.ar    1  UNL1        0.0206
     14 C          68.5858   92.0782   14.1587 C.ar    1  UNL1        0.1020
     15 N          68.8758   91.8201   12.7098 N.ar    1  UNL1       -0.2104
     16 C          67.7929   91.9914   11.6861 C.ar    1  UNL1        0.2224
     17 O          68.0830   91.7333   10.2371 O.3     1  UNL1       -0.4563
     18 C          68.8988   92.7149    9.4492 C.3     1  UNL1        0.2542
     19 C          61.4988   86.8937   10.8764 C.3     1  UNL1        0.0603
     20 C          63.6712   83.0495   12.9303 C.2     1  UNL1        0.1673
     21 C          64.3772   82.1785   11.9339 C.2     1  UNL1        0.2683
     22 N          64.3590   82.5381   10.4777 N.2     1  UNL1       -0.0278
     23 C          63.6347   83.7685   10.0180 C.2     1  UNL1        0.3719
     24 N          63.4451   84.3725    8.6581 N.2     1  UNL1       -0.0311
     25 C          62.6220   85.6167    8.8141 C.2     1  UNL1        0.2319
     26 C          62.3028   85.7817   10.2704 C.2     1  UNL1        0.0329
     27 C          62.9287   84.6395   11.0145 C.2     1  UNL1        0.0739
     28 C          62.9469   84.2799   12.4706 C.3     1  UNL1        0.1019
     29 C          62.8230   83.4392   15.3549 C.3     1  UNL1        0.2522
     30 O          63.6894   82.6899   14.3865 O.2     1  UNL1       -0.4715
@<TRIPOS>BOND
     1    29    30    1
     2    30    20    1
     3    20    21    2
     4    21    22    1
     5    22    23    2
     6    23    24    1
     7    24    25    2
     8    25    26    1
     9    26    19    1
    10    19     1    1
    11     1     2   ar
    12     2     3   ar
    13     3     4   ar
    14     4     8    1
    15     8    10    1
    16    10    11    1
    17    11    12   ar
    18    12    13   ar
    19    13    14   ar
    20    14    15   ar
    21    15    16   ar
    22    16    17    1
    23    17    18    1
    24     4     5   ar
    25     5     6   ar
    26     6     7    1
    27    26    27    2
    28    27    28    1
    29    28    20    1
    30    27    23    1
    31     6     1   ar
    32    16    11   ar
    33     8     9    1
