@<TRIPOS>MOLECULE
*****
 34 37 0 0 0
SMALL
GASTEIGER

@<TRIPOS>ATOM
      1 C          65.0851   91.2428   14.2555 C.ar    1  UNL1        0.0484
      2 C          66.0962   92.1047   14.9516 C.ar    1  UNL1        0.1356
      3 O          66.4739   91.8176   16.3747 O.3     1  UNL1       -0.5056
      4 C          66.7298   93.2537   14.2247 C.ar    1  UNL1        0.0732
      5 C          66.3522   93.5408   12.8017 C.ar    1  UNL1        0.1426
      6 O          66.9858   94.6899   12.0749 O.3     1  UNL1       -0.5052
      7 C          65.3410   92.6789   12.1055 C.ar    1  UNL1        0.1070
      8 C          64.9634   92.9661   10.6826 C.ar    1  UNL1        0.2046
      9 O          65.5970   94.1151    9.9557 O.2     1  UNL1       -0.2863
     10 C          63.9522   92.1042    9.9865 C.ar    1  UNL1        0.0797
     11 C          63.3186   90.9552   10.7133 C.ar    1  UNL1        0.1485
     12 O          63.6962   90.6680   12.1363 O.2     1  UNL1       -0.4534
     13 C          64.7074   91.5299   12.8324 C.ar    1  UNL1        0.1502
     14 H          66.0781   91.0999   16.8287 H       1  UNL1        0.2922
     15 H          67.6175   95.2283   12.5097 H       1  UNL1        0.2922
     16 C          62.5508   86.6468   17.1630 C.3     1  UNL1        0.0897
     17 N          63.1843   87.7958   16.4361 N.3     1  UNL1       -0.2694
     18 C          64.0591   87.5390   15.2449 C.3     1  UNL1        0.0726
     19 C          64.6927   88.6880   14.5180 C.3     1  UNL1        0.0244
     20 C          64.4515   90.0938   14.9824 C.3     1  UNL1        0.0580
     21 C          63.5768   90.3506   16.1735 C.3     1  UNL1        0.1306
     22 O          63.3356   91.7564   16.6378 O.3     1  UNL1       -0.3827
     23 C          62.9432   89.2015   16.9004 C.3     1  UNL1        0.1020
     24 H          62.7527   91.7453   17.4131 H       1  UNL1        0.2104
     25 C          62.3074   90.0932   10.0171 C.2     1  UNL1        0.0377
     26 C          62.5190   88.6109    9.9291 C.2     1  UNL1        0.0048
     27 C          61.5077   87.7490    9.2329 C.ar    1  UNL1        0.0213
     28 C          60.0804   88.1991    9.1329 C.ar    1  UNL1        0.0585
     29 CL         59.6642   89.5111    9.7291 Cl      1  UNL1       -0.0822
     30 C          59.0693   87.3372    8.4367 C.ar    1  UNL1        0.0114
     31 C          59.4855   86.0252    7.8406 C.ar    1  UNL1        0.0017
     32 C          60.9128   85.5751    7.9406 C.ar    1  UNL1        0.0114
     33 C          61.9239   86.4370    8.6367 C.ar    1  UNL1        0.0585
     34 CL         63.3514   85.9869    8.7368 Cl      1  UNL1       -0.0822
@<TRIPOS>BOND
     1    16    17    1
     2    17    18    1
     3    18    19    1
     4    19    20    1
     5    20     1    1
     6     1     2   ar
     7     2     3    1
     8     2     4   ar
     9     4     5   ar
    10     5     6    1
    11     5     7   ar
    12     7     8   ar
    13     8     9    2
    14     8    10   ar
    15    10    11   ar
    16    11    25    1
    17    25    26    2
    18    26    27    1
    19    27    28   ar
    20    28    29    1
    21    28    30   ar
    22    30    31   ar
    23    31    32   ar
    24    32    33   ar
    25    33    34    1
    26    11    12   ar
    27    12    13   ar
    28    20    21    1
    29    21    22    1
    30    21    23    1
    31    23    17    1
    32    13     1   ar
    33    13     7   ar
    34    33    27   ar
    35     3    14    1
    36     6    15    1
    37    22    24    1
@<TRIPOS>MOLECULE
*****
 34 37 0 0 0
SMALL
GASTEIGER

@<TRIPOS>ATOM
      1 C          66.0426   92.6501   13.3087 C.ar    1  UNL1        0.0484
      2 C          66.6104   93.2553   14.5582 C.ar    1  UNL1        0.1356
      3 O          67.7251   94.2550   14.4679 O.3     1  UNL1       -0.5056
      4 C          66.0635   92.8609   15.8982 C.ar    1  UNL1        0.0732
      5 C          64.9489   91.8612   15.9886 C.ar    1  UNL1        0.1426
      6 O          64.4020   91.4668   17.3285 O.3     1  UNL1       -0.5052
      7 C          64.3811   91.2559   14.7390 C.ar    1  UNL1        0.1070
      8 C          63.2664   90.2562   14.8295 C.ar    1  UNL1        0.2046
      9 O          62.7196   89.8618   16.1694 O.2     1  UNL1       -0.2863
     10 C          62.6987   89.6510   13.5800 C.ar    1  UNL1        0.0797
     11 C          63.2455   90.0454   12.2400 C.ar    1  UNL1        0.1485
     12 O          64.3602   91.0451   12.1496 O.2     1  UNL1       -0.4534
     13 C          64.9279   91.6503   13.3991 C.ar    1  UNL1        0.1502
     14 H          68.0667   94.5014   13.6309 H       1  UNL1        0.2922
     15 H          64.7567   91.8449   18.1090 H       1  UNL1        0.2922
     16 C          68.2301   94.2278    7.9491 C.3     1  UNL1        0.0897
     17 N          67.6832   93.8334    9.2890 N.3     1  UNL1       -0.2694
     18 C          67.8753   92.4344    9.7952 C.3     1  UNL1        0.0726
     19 C          67.3284   92.0400   11.1351 C.3     1  UNL1        0.0244
     20 C          66.5895   93.0445   11.9688 C.3     1  UNL1        0.0580
     21 C          66.3975   94.4433   11.4626 C.3     1  UNL1        0.1306
     22 O          65.6585   95.4479   12.2964 O.3     1  UNL1       -0.3827
     23 C          66.9443   94.8378   10.1227 C.3     1  UNL1        0.1020
     24 H          65.6242   96.2956   11.8262 H       1  UNL1        0.2104
     25 C          62.6777   89.4401   10.9905 C.2     1  UNL1        0.0377
     26 C          61.6438   88.3575   11.0844 C.2     1  UNL1        0.0048
     27 C          61.0760   87.7522    9.8349 C.ar    1  UNL1        0.0213
     28 C          61.4419   86.3501    9.4475 C.ar    1  UNL1        0.0585
     29 CL         62.3756   85.5532   10.3095 Cl      1  UNL1       -0.0822
     30 C          60.8740   85.7449    8.1980 C.ar    1  UNL1        0.0114
     31 C          59.9403   86.5418    7.3359 C.ar    1  UNL1        0.0017
     32 C          59.5744   87.9439    7.7234 C.ar    1  UNL1        0.0114
     33 C          60.1422   88.5491    8.9729 C.ar    1  UNL1        0.0585
     34 CL         59.7763   89.9513    9.3604 Cl      1  UNL1       -0.0822
@<TRIPOS>BOND
     1    16    17    1
     2    17    18    1
     3    18    19    1
     4    19    20    1
     5    20     1    1
     6     1     2   ar
     7     2     3    1
     8     2     4   ar
     9     4     5   ar
    10     5     6    1
    11     5     7   ar
    12     7     8   ar
    13     8     9    2
    14     8    10   ar
    15    10    11   ar
    16    11    25    1
    17    25    26    2
    18    26    27    1
    19    27    28   ar
    20    28    29    1
    21    28    30   ar
    22    30    31   ar
    23    31    32   ar
    24    32    33   ar
    25    33    34    1
    26    11    12   ar
    27    12    13   ar
    28    20    21    1
    29    21    22    1
    30    21    23    1
    31    23    17    1
    32    13     1   ar
    33    13     7   ar
    34    33    27   ar
    35     3    14    1
    36     6    15    1
    37    22    24    1
@<TRIPOS>MOLECULE
*****
 34 37 0 0 0
SMALL
GASTEIGER

@<TRIPOS>ATOM
      1 C          66.0395   92.6515   13.3055 C.ar    1  UNL1        0.0484
      2 C          66.6066   93.2583   14.5545 C.ar    1  UNL1        0.1356
      3 O          67.7203   94.2591   14.4634 O.3     1  UNL1       -0.5056
      4 C          66.0602   92.8643   15.8947 C.ar    1  UNL1        0.0732
      5 C          64.9466   91.8635   15.9859 C.ar    1  UNL1        0.1426
      6 O          64.4001   91.4696   17.3261 O.3     1  UNL1       -0.5052
      7 C          64.3794   91.2567   14.7368 C.ar    1  UNL1        0.1070
      8 C          63.2658   90.2559   14.8280 C.ar    1  UNL1        0.2046
      9 O          62.7193   89.8620   16.1682 O.2     1  UNL1       -0.2863
     10 C          62.6987   89.6492   13.5789 C.ar    1  UNL1        0.0797
     11 C          63.2452   90.0431   12.2387 C.ar    1  UNL1        0.1485
     12 O          64.3588   91.0439   12.1476 O.2     1  UNL1       -0.4534
     13 C          64.9259   91.6507   13.3966 C.ar    1  UNL1        0.1502
     14 H          68.0617   94.5052   13.6262 H       1  UNL1        0.2922
     15 H          64.7544   91.8486   18.1063 H       1  UNL1        0.2922
     16 C          68.2254   94.2274    7.9447 C.3     1  UNL1        0.0897
     17 N          67.6790   93.8334    9.2849 N.3     1  UNL1       -0.2694
     18 C          67.8646   92.4326    9.7882 C.3     1  UNL1        0.0726
     19 C          67.3181   92.0386   11.1284 C.3     1  UNL1        0.0244
     20 C          66.5860   93.0455   11.9653 C.3     1  UNL1        0.0580
     21 C          66.4005   94.4462   11.4620 C.3     1  UNL1        0.1306
     22 O          65.6684   95.4531   12.2989 O.3     1  UNL1       -0.3827
     23 C          66.9469   94.8402   10.1218 C.3     1  UNL1        0.1020
     24 H          65.6377   96.3019   11.8303 H       1  UNL1        0.2104
     25 C          62.6780   89.4363   10.9896 C.2     1  UNL1        0.0377
     26 C          61.6401   88.3576   11.0843 C.2     1  UNL1        0.0048
     27 C          61.0729   87.7507    9.8352 C.ar    1  UNL1        0.0213
     28 C          60.1395   88.5464    8.9718 C.ar    1  UNL1        0.0585
     29 CL         59.7731   89.9489    9.3574 Cl      1  UNL1       -0.0822
     30 C          59.5724   87.9395    7.7228 C.ar    1  UNL1        0.0114
     31 C          59.9387   86.5370    7.3372 C.ar    1  UNL1        0.0017
     32 C          60.8722   85.7413    8.2006 C.ar    1  UNL1        0.0114
     33 C          61.4393   86.3482    9.4496 C.ar    1  UNL1        0.0585
     34 CL         62.3728   85.5525   10.3131 Cl      1  UNL1       -0.0822
@<TRIPOS>BOND
     1    16    17    1
     2    17    18    1
     3    18    19    1
     4    19    20    1
     5    20     1    1
     6     1     2   ar
     7     2     3    1
     8     2     4   ar
     9     4     5   ar
    10     5     6    1
    11     5     7   ar
    12     7     8   ar
    13     8     9    2
    14     8    10   ar
    15    10    11   ar
    16    11    25    1
    17    25    26    2
    18    26    27    1
    19    27    28   ar
    20    28    29    1
    21    28    30   ar
    22    30    31   ar
    23    31    32   ar
    24    32    33   ar
    25    33    34    1
    26    11    12   ar
    27    12    13   ar
    28    20    21    1
    29    21    22    1
    30    21    23    1
    31    23    17    1
    32    13     1   ar
    33    13     7   ar
    34    33    27   ar
    35     3    14    1
    36     6    15    1
    37    22    24    1
@<TRIPOS>MOLECULE
*****
 34 37 0 0 0
SMALL
GASTEIGER

@<TRIPOS>ATOM
      1 C          62.6883   89.5504   10.9564 C.ar    1  UNL1        0.0484
      2 C          62.9382   91.0099   10.7170 C.ar    1  UNL1        0.1356
      3 O          62.3721   91.6779    9.4990 O.3     1  UNL1       -0.5056
      4 C          63.7541   91.8015   11.6956 C.ar    1  UNL1        0.0732
      5 C          64.3201   91.1336   12.9136 C.ar    1  UNL1        0.1426
      6 O          65.1360   91.9252   13.8922 O.3     1  UNL1       -0.5052
      7 C          64.0702   89.6740   13.1530 C.ar    1  UNL1        0.1070
      8 C          64.6363   89.0062   14.3710 C.ar    1  UNL1        0.2046
      9 O          65.4522   89.7978   15.3496 O.2     1  UNL1       -0.2863
     10 C          64.3864   87.5467   14.6104 C.ar    1  UNL1        0.0797
     11 C          63.5704   86.7550   13.6318 C.ar    1  UNL1        0.1485
     12 O          63.0044   87.4229   12.4138 O.2     1  UNL1       -0.4534
     13 C          63.2543   88.8824   12.1744 C.ar    1  UNL1        0.1502
     14 H          61.8625   91.1834    8.8877 H       1  UNL1        0.2922
     15 H          65.2921   92.8370   13.7426 H       1  UNL1        0.2922
     16 C          59.4246   86.3839    7.0421 C.3     1  UNL1        0.0897
     17 N          60.2405   87.1756    8.0207 N.3     1  UNL1       -0.2694
     18 C          61.5884   86.6766    8.4501 C.3     1  UNL1        0.0726
     19 C          62.4043   87.4682    9.4287 C.3     1  UNL1        0.0244
     20 C          61.8724   88.7588    9.9778 C.3     1  UNL1        0.0580
     21 C          60.5245   89.2577    9.5484 C.3     1  UNL1        0.1306
     22 O          59.9926   90.5482   10.0976 O.3     1  UNL1       -0.3827
     23 C          59.7086   88.4661    8.5699 C.3     1  UNL1        0.1020
     24 H          59.1163   90.7234    9.7204 H       1  UNL1        0.2104
     25 C          63.3206   85.2955   13.8712 C.2     1  UNL1        0.0377
     26 C          63.0300   84.3848   12.7153 C.2     1  UNL1        0.0048
     27 C          62.7801   82.9252   12.9548 C.ar    1  UNL1        0.0213
     28 C          62.2022   82.4677   14.2611 C.ar    1  UNL1        0.0585
     29 CL         61.8742   83.4696   15.3281 Cl      1  UNL1       -0.0822
     30 C          61.9524   81.0081   14.5005 C.ar    1  UNL1        0.0114
     31 C          62.2804   80.0062   13.4335 C.ar    1  UNL1        0.0017
     32 C          62.8583   80.4637   12.1271 C.ar    1  UNL1        0.0114
     33 C          63.1081   81.9232   11.8878 C.ar    1  UNL1        0.0585
     34 CL         63.6860   82.3809   10.5813 Cl      1  UNL1       -0.0822
@<TRIPOS>BOND
     1    16    17    1
     2    17    18    1
     3    18    19    1
     4    19    20    1
     5    20     1    1
     6     1     2   ar
     7     2     3    1
     8     2     4   ar
     9     4     5   ar
    10     5     6    1
    11     5     7   ar
    12     7     8   ar
    13     8     9    2
    14     8    10   ar
    15    10    11   ar
    16    11    25    1
    17    25    26    2
    18    26    27    1
    19    27    28   ar
    20    28    29    1
    21    28    30   ar
    22    30    31   ar
    23    31    32   ar
    24    32    33   ar
    25    33    34    1
    26    11    12   ar
    27    12    13   ar
    28    20    21    1
    29    21    22    1
    30    21    23    1
    31    23    17    1
    32    13     1   ar
    33    13     7   ar
    34    33    27   ar
    35     3    14    1
    36     6    15    1
    37    22    24    1
@<TRIPOS>MOLECULE
*****
 34 37 0 0 0
SMALL
GASTEIGER

@<TRIPOS>ATOM
      1 C          62.7051   89.5737   10.9721 C.ar    1  UNL1        0.0484
      2 C          62.9521   91.0336   10.7322 C.ar    1  UNL1        0.1356
      3 O          62.3832   91.7004    9.5149 O.3     1  UNL1       -0.5056
      4 C          63.7682   91.8267   11.7095 C.ar    1  UNL1        0.0732
      5 C          64.3371   91.1600   12.9267 C.ar    1  UNL1        0.1426
      6 O          65.1531   91.9531   13.9039 O.3     1  UNL1       -0.5052
      7 C          64.0901   89.7000   13.1667 C.ar    1  UNL1        0.1070
      8 C          64.6591   89.0333   14.3839 C.ar    1  UNL1        0.2046
      9 O          65.4751   89.8264   15.3612 O.2     1  UNL1       -0.2863
     10 C          64.4120   87.5734   14.6238 C.ar    1  UNL1        0.0797
     11 C          63.5960   86.7802   13.6466 C.ar    1  UNL1        0.1485
     12 O          63.0270   87.4470   12.4294 O.2     1  UNL1       -0.4534
     13 C          63.2741   88.9069   12.1894 C.ar    1  UNL1        0.1502
     14 H          61.8734   91.2050    8.9044 H       1  UNL1        0.2922
     15 H          65.3075   92.8651   13.7540 H       1  UNL1        0.2922
     16 C          59.4410   86.4011    7.0631 C.3     1  UNL1        0.0897
     17 N          60.2571   87.1943    8.0403 N.3     1  UNL1       -0.2694
     18 C          61.6057   86.6968    8.4691 C.3     1  UNL1        0.0726
     19 C          62.4217   87.4900    9.4464 C.3     1  UNL1        0.0244
     20 C          61.8891   88.7806    9.9949 C.3     1  UNL1        0.0580
     21 C          60.5405   89.2779    9.5661 C.3     1  UNL1        0.1306
     22 O          60.0079   90.5685   10.1146 O.3     1  UNL1       -0.3827
     23 C          59.7245   88.4848    8.5888 C.3     1  UNL1        0.1020
     24 H          59.1311   90.7426    9.7379 H       1  UNL1        0.2104
     25 C          63.3490   85.3202   13.8866 C.2     1  UNL1        0.0377
     26 C          63.0331   84.4136   12.7341 C.2     1  UNL1        0.0048
     27 C          62.7861   82.9537   12.9741 C.ar    1  UNL1        0.0213
     28 C          63.1139   81.9521   11.9067 C.ar    1  UNL1        0.0585
     29 CL         63.6887   82.4105   10.5992 Cl      1  UNL1       -0.0822
     30 C          62.8668   80.4923   12.1467 C.ar    1  UNL1        0.0114
     31 C          62.2920   80.0339   13.4542 C.ar    1  UNL1        0.0017
     32 C          61.9643   81.0354   14.5216 C.ar    1  UNL1        0.0114
     33 C          62.2113   82.4953   14.2816 C.ar    1  UNL1        0.0585
     34 CL         61.8835   83.4969   15.3490 Cl      1  UNL1       -0.0822
@<TRIPOS>BOND
     1    16    17    1
     2    17    18    1
     3    18    19    1
     4    19    20    1
     5    20     1    1
     6     1     2   ar
     7     2     3    1
     8     2     4   ar
     9     4     5   ar
    10     5     6    1
    11     5     7   ar
    12     7     8   ar
    13     8     9    2
    14     8    10   ar
    15    10    11   ar
    16    11    25    1
    17    25    26    2
    18    26    27    1
    19    27    28   ar
    20    28    29    1
    21    28    30   ar
    22    30    31   ar
    23    31    32   ar
    24    32    33   ar
    25    33    34    1
    26    11    12   ar
    27    12    13   ar
    28    20    21    1
    29    21    22    1
    30    21    23    1
    31    23    17    1
    32    13     1   ar
    33    13     7   ar
    34    33    27   ar
    35     3    14    1
    36     6    15    1
    37    22    24    1
@<TRIPOS>MOLECULE
*****
 34 37 0 0 0
SMALL
GASTEIGER

@<TRIPOS>ATOM
      1 C          62.7572   84.4086   12.7880 C.ar    1  UNL1        0.0484
      2 C          62.3691   83.0859   13.3794 C.ar    1  UNL1        0.1356
      3 O          62.0029   81.9414   12.4817 O.3     1  UNL1       -0.5056
      4 C          62.3473   82.9077   14.8686 C.ar    1  UNL1        0.0732
      5 C          62.7135   84.0522   15.7664 C.ar    1  UNL1        0.1426
      6 O          62.6916   83.8740   17.2556 O.3     1  UNL1       -0.5052
      7 C          63.1016   85.3750   15.1749 C.ar    1  UNL1        0.1070
      8 C          63.4678   86.5195   16.0727 C.ar    1  UNL1        0.2046
      9 O          63.4460   86.3413   17.5619 O.2     1  UNL1       -0.2863
     10 C          63.8559   87.8421   15.4812 C.ar    1  UNL1        0.0797
     11 C          63.8778   88.0203   13.9920 C.ar    1  UNL1        0.1485
     12 O          63.5116   86.8758   13.0943 O.2     1  UNL1       -0.4534
     13 C          63.1235   85.5532   13.6857 C.ar    1  UNL1        0.1502
     14 H          62.0165   82.0526   11.5514 H       1  UNL1        0.2922
     15 H          62.4492   83.0478   17.6251 H       1  UNL1        0.2922
     16 C          62.8447   85.1214    6.8311 C.3     1  UNL1        0.0897
     17 N          62.8228   84.9432    8.3203 N.3     1  UNL1       -0.2694
     18 C          63.7292   83.9392    8.9689 C.3     1  UNL1        0.0726
     19 C          63.7074   83.7611   10.4581 C.3     1  UNL1        0.0244
     20 C          62.7791   84.5868   11.2987 C.3     1  UNL1        0.0580
     21 C          61.8728   85.5907   10.6501 C.3     1  UNL1        0.1306
     22 O          60.9445   86.4164   11.4907 O.3     1  UNL1       -0.3827
     23 C          61.8946   85.7688    9.1609 C.3     1  UNL1        0.1020
     24 H          60.4331   87.0105   10.9194 H       1  UNL1        0.2104
     25 C          64.2659   89.3431   13.4005 C.2     1  UNL1        0.0377
     26 C          65.0633   90.3218   14.2106 C.2     1  UNL1        0.0048
     27 C          65.4514   91.6446   13.6191 C.ar    1  UNL1        0.0213
     28 C          66.3157   92.5903   14.3992 C.ar    1  UNL1        0.0585
     29 CL         66.7920   92.2133   15.7707 Cl      1  UNL1       -0.0822
     30 C          66.7038   93.9130   13.8077 C.ar    1  UNL1        0.0114
     31 C          66.2275   94.2900   12.4362 C.ar    1  UNL1        0.0017
     32 C          65.3631   93.3443   11.6562 C.ar    1  UNL1        0.0114
     33 C          64.9751   92.0216   12.2476 C.ar    1  UNL1        0.0585
     34 CL         64.1107   91.0758   11.4676 Cl      1  UNL1       -0.0822
@<TRIPOS>BOND
     1    16    17    1
     2    17    18    1
     3    18    19    1
     4    19    20    1
     5    20     1    1
     6     1     2   ar
     7     2     3    1
     8     2     4   ar
     9     4     5   ar
    10     5     6    1
    11     5     7   ar
    12     7     8   ar
    13     8     9    2
    14     8    10   ar
    15    10    11   ar
    16    11    25    1
    17    25    26    2
    18    26    27    1
    19    27    28   ar
    20    28    29    1
    21    28    30   ar
    22    30    31   ar
    23    31    32   ar
    24    32    33   ar
    25    33    34    1
    26    11    12   ar
    27    12    13   ar
    28    20    21    1
    29    21    22    1
    30    21    23    1
    31    23    17    1
    32    13     1   ar
    33    13     7   ar
    34    33    27   ar
    35     3    14    1
    36     6    15    1
    37    22    24    1
@<TRIPOS>MOLECULE
*****
 34 37 0 0 0
SMALL
GASTEIGER

@<TRIPOS>ATOM
      1 C          62.7611   84.4030   12.7979 C.ar    1  UNL1        0.0484
      2 C          62.3735   83.0799   13.3888 C.ar    1  UNL1        0.1356
      3 O          62.0077   81.9356   12.4905 O.3     1  UNL1       -0.5056
      4 C          62.3516   82.9010   14.8779 C.ar    1  UNL1        0.0732
      5 C          62.7174   84.0452   15.7762 C.ar    1  UNL1        0.1426
      6 O          62.6956   83.8663   17.2653 O.3     1  UNL1       -0.5052
      7 C          63.1051   85.3684   15.1854 C.ar    1  UNL1        0.1070
      8 C          63.4709   86.5126   16.0837 C.ar    1  UNL1        0.2046
      9 O          63.4490   86.3337   17.5728 O.2     1  UNL1       -0.2863
     10 C          63.8585   87.8357   15.4928 C.ar    1  UNL1        0.0797
     11 C          63.8804   88.0145   14.0037 C.ar    1  UNL1        0.1485
     12 O          63.5146   86.8704   13.1054 O.2     1  UNL1       -0.4534
     13 C          63.1269   85.5473   13.6962 C.ar    1  UNL1        0.1502
     14 H          62.0214   82.0473   11.5602 H       1  UNL1        0.2922
     15 H          62.4534   83.0398   17.6344 H       1  UNL1        0.2922
     16 C          62.8486   85.1185    6.8414 C.3     1  UNL1        0.0897
     17 N          62.8267   84.9397    8.3305 N.3     1  UNL1       -0.2694
     18 C          63.7307   83.9330    8.9783 C.3     1  UNL1        0.0726
     19 C          63.7088   83.7541   10.4675 C.3     1  UNL1        0.0244
     20 C          62.7830   84.5819   11.3088 C.3     1  UNL1        0.0580
     21 C          61.8792   85.5885   10.6610 C.3     1  UNL1        0.1306
     22 O          60.9534   86.4163   11.5023 O.3     1  UNL1       -0.3827
     23 C          61.9010   85.7674    9.1718 C.3     1  UNL1        0.1020
     24 H          60.4434   87.0120   10.9314 H       1  UNL1        0.2104
     25 C          64.2680   89.3377   13.4129 C.2     1  UNL1        0.0377
     26 C          65.0687   90.3146   14.2219 C.2     1  UNL1        0.0048
     27 C          65.4564   91.6378   13.6311 C.ar    1  UNL1        0.0213
     28 C          64.9823   92.0141   12.2586 C.ar    1  UNL1        0.0585
     29 CL         64.1206   91.0673   11.4769 Cl      1  UNL1       -0.0822
     30 C          65.3700   93.3372   11.6679 C.ar    1  UNL1        0.0114
     31 C          66.2317   94.2840   12.4496 C.ar    1  UNL1        0.0017
     32 C          66.7057   93.9077   13.8220 C.ar    1  UNL1        0.0114
     33 C          66.3181   92.5846   14.4127 C.ar    1  UNL1        0.0585
     34 CL         66.7921   92.2082   15.7852 Cl      1  UNL1       -0.0822
@<TRIPOS>BOND
     1    16    17    1
     2    17    18    1
     3    18    19    1
     4    19    20    1
     5    20     1    1
     6     1     2   ar
     7     2     3    1
     8     2     4   ar
     9     4     5   ar
    10     5     6    1
    11     5     7   ar
    12     7     8   ar
    13     8     9    2
    14     8    10   ar
    15    10    11   ar
    16    11    25    1
    17    25    26    2
    18    26    27    1
    19    27    28   ar
    20    28    29    1
    21    28    30   ar
    22    30    31   ar
    23    31    32   ar
    24    32    33   ar
    25    33    34    1
    26    11    12   ar
    27    12    13   ar
    28    20    21    1
    29    21    22    1
    30    21    23    1
    31    23    17    1
    32    13     1   ar
    33    13     7   ar
    34    33    27   ar
    35     3    14    1
    36     6    15    1
    37    22    24    1
@<TRIPOS>MOLECULE
*****
 34 37 0 0 0
SMALL
GASTEIGER

@<TRIPOS>ATOM
      1 C          62.8452   85.0480   13.3311 C.ar    1  UNL1        0.0484
      2 C          62.4856   83.8557   14.1671 C.ar    1  UNL1        0.1356
      3 O          62.1696   82.5456   13.5084 O.3     1  UNL1       -0.5056
      4 C          62.4420   83.9734   15.6619 C.ar    1  UNL1        0.0732
      5 C          62.7580   85.2834   16.3206 C.ar    1  UNL1        0.1426
      6 O          62.7143   85.4010   17.8153 O.3     1  UNL1       -0.5052
      7 C          63.1176   86.4758   15.4846 C.ar    1  UNL1        0.1070
      8 C          63.4336   87.7858   16.1433 C.ar    1  UNL1        0.2046
      9 O          63.3899   87.9035   17.6381 O.2     1  UNL1       -0.2863
     10 C          63.7932   88.9782   15.3073 C.ar    1  UNL1        0.0797
     11 C          63.8368   88.8605   13.8126 C.ar    1  UNL1        0.1485
     12 O          63.5208   87.5505   13.1539 O.2     1  UNL1       -0.4534
     13 C          63.1612   86.3581   13.9899 C.ar    1  UNL1        0.1502
     14 H          62.1969   82.4721   12.5747 H       1  UNL1        0.2922
     15 H          62.4897   84.6562   18.3376 H       1  UNL1        0.2922
     16 C          63.0197   84.5774    7.3522 C.3     1  UNL1        0.0897
     17 N          62.9761   84.6950    8.8469 N.3     1  UNL1       -0.2694
     18 C          62.0113   85.6421    9.4968 C.3     1  UNL1        0.0726
     19 C          61.9677   85.7597   10.9916 C.3     1  UNL1        0.0244
     20 C          62.8889   84.9304   11.8364 C.3     1  UNL1        0.0580
     21 C          63.8536   83.9834   11.1865 C.3     1  UNL1        0.1306
     22 O          64.7748   83.1540   12.0313 O.3     1  UNL1       -0.3827
     23 C          63.8972   83.8657    9.6917 C.3     1  UNL1        0.1020
     24 H          65.3283   82.6005   11.4584 H       1  UNL1        0.2104
     25 C          64.1964   90.0529   12.9766 C.2     1  UNL1        0.0377
     26 C          64.9893   91.1768   13.5750 C.2     1  UNL1        0.0048
     27 C          65.3490   92.3693   12.7390 C.ar    1  UNL1        0.0213
     28 C          64.8742   92.4604   11.3191 C.ar    1  UNL1        0.0585
     29 CL         64.0397   91.3592   10.7351 Cl      1  UNL1       -0.0822
     30 C          65.2338   93.6528   10.4831 C.ar    1  UNL1        0.0114
     31 C          66.0682   94.7540   11.0671 C.ar    1  UNL1        0.0017
     32 C          66.5430   94.6629   12.4871 C.ar    1  UNL1        0.0114
     33 C          66.1834   93.4705   13.3230 C.ar    1  UNL1        0.0585
     34 CL         66.6582   93.3793   14.7430 Cl      1  UNL1       -0.0822
@<TRIPOS>BOND
     1    16    17    1
     2    17    18    1
     3    18    19    1
     4    19    20    1
     5    20     1    1
     6     1     2   ar
     7     2     3    1
     8     2     4   ar
     9     4     5   ar
    10     5     6    1
    11     5     7   ar
    12     7     8   ar
    13     8     9    2
    14     8    10   ar
    15    10    11   ar
    16    11    25    1
    17    25    26    2
    18    26    27    1
    19    27    28   ar
    20    28    29    1
    21    28    30   ar
    22    30    31   ar
    23    31    32   ar
    24    32    33   ar
    25    33    34    1
    26    11    12   ar
    27    12    13   ar
    28    20    21    1
    29    21    22    1
    30    21    23    1
    31    23    17    1
    32    13     1   ar
    33    13     7   ar
    34    33    27   ar
    35     3    14    1
    36     6    15    1
    37    22    24    1
