@<TRIPOS>MOLECULE
*****
 44 48 0 0 0
SMALL
GASTEIGER

@<TRIPOS>ATOM
      1 C          63.6694   86.6660   13.9378 C.ar    1  UNL1        0.2220
      2 N          63.6227   86.0897   15.3220 N.ar    1  UNL1       -0.2110
      3 C          63.4530   86.9948   16.5059 C.ar    1  UNL1        0.1160
      4 C          63.3300   88.4764   16.3058 C.ar    1  UNL1        0.1085
      5 CL         63.1603   89.3815   17.4898 Cl      1  UNL1       -0.0777
      6 C          63.3767   89.0527   14.9217 C.ar    1  UNL1        0.1473
      7 N          63.5464   88.1475   13.7377 N.ar    1  UNL1       -0.1976
      8 N          63.8392   85.7608   12.7538 N.pl3   1  UNL1       -0.2801
      9 H          64.5428   85.0723   12.7574 H       1  UNL1        0.1552
     10 C          62.5690   84.6987   10.7517 C.ar    1  UNL1        0.1517
     11 C          61.6666   84.8426    9.5622 C.ar    1  UNL1        0.0337
     12 C          61.1319   86.1925    9.1854 C.ar    1  UNL1       -0.0216
     13 C          61.4996   87.3983    9.9980 C.ar    1  UNL1       -0.0233
     14 C          62.4020   87.2546   11.1875 C.ar    1  UNL1        0.0132
     15 C          62.9368   85.9047   11.5644 C.ar    1  UNL1        0.0846
     16 C          61.0802   88.8246    9.7976 C.3     1  UNL1        0.0434
     17 C          60.1894   89.3970    8.7351 C.3     1  UNL1        0.0772
     18 N          59.4981   88.6846    7.6106 N.3     1  UNL1       -0.2644
     19 C          59.5268   87.2239    7.2708 C.3     1  UNL1        0.0772
     20 C          60.2539   86.1148    7.9716 C.3     1  UNL1        0.0435
     21 C          64.3130   82.7998   10.4315 C.3     1  UNL1        0.2525
     22 O          63.1037   83.3489   11.1285 O.3     1  UNL1       -0.4702
     23 C          58.6684   89.5470    6.7063 C.3     1  UNL1        0.1587
     24 C          59.3356   90.4649    5.7252 C.2     1  UNL1        0.2421
     25 O          60.8282   90.4466    5.5765 O.2     1  UNL1       -0.2734
     26 N          58.5104   91.4010    4.8929 N.am    1  UNL1       -0.2749
     27 C          59.1777   92.3188    3.9120 C.3     1  UNL1        0.1149
     28 C          57.0179   91.4193    5.0417 C.3     1  UNL1        0.1149
     29 N          63.2537   90.5342   14.7216 N.pl3   1  UNL1       -0.2948
     30 H          62.6245   91.0546   15.2716 H       1  UNL1        0.1537
     31 C          64.0892   91.2227   13.6835 C.ar    1  UNL1        0.0839
     32 C          63.6765   91.1838   12.2419 C.ar    1  UNL1        0.0190
     33 C          64.5121   91.8724   11.2037 C.ar    1  UNL1        0.0160
     34 C          65.7603   92.5998   11.6072 C.ar    1  UNL1        0.0511
     35 C          66.1729   92.6387   13.0487 C.ar    1  UNL1        0.0527
     36 C          65.3374   91.9502   14.0869 C.ar    1  UNL1        0.1532
     37 N          66.5958   93.2884   10.5691 N.pl3   1  UNL1       -0.3027
     38 C          66.4336   94.7605   10.3312 C.3     1  UNL1        0.1231
     39 C          67.2692   95.4490    9.2930 C.3     1  UNL1        0.1636
     40 O          68.2670   94.6654    8.4927 O.3     1  UNL1       -0.3501
     41 C          68.4291   93.1933    8.7306 C.3     1  UNL1        0.1636
     42 C          67.5936   92.5048    9.7688 C.3     1  UNL1        0.1231
     43 O          65.7500   91.9890   15.5285 O.3     1  UNL1       -0.4701
     44 C          66.9837   92.7390   15.9355 C.3     1  UNL1        0.2525
@<TRIPOS>BOND
     1    21    22    1
     2    22    10    1
     3    10    11   ar
     4    11    12   ar
     5    12    13   ar
     6    13    14   ar
     7    14    15   ar
     8    15     8    1
     9     8     1    1
    10     1     2   ar
    11     2     3   ar
    12     3     4   ar
    13     4     5    1
    14     4     6   ar
    15     6    29    1
    16    29    31    1
    17    31    32   ar
    18    32    33   ar
    19    33    34   ar
    20    34    37    1
    21    37    38    1
    22    38    39    1
    23    39    40    1
    24    40    41    1
    25    41    42    1
    26    34    35   ar
    27    35    36   ar
    28    36    43    1
    29    43    44    1
    30     6     7   ar
    31    13    16    1
    32    16    17    1
    33    17    18    1
    34    18    23    1
    35    23    24    1
    36    24    25    2
    37    24    26   am
    38    26    27    1
    39    26    28    1
    40    18    19    1
    41    19    20    1
    42    15    10   ar
    43     7     1   ar
    44    20    12    1
    45    36    31   ar
    46    42    37    1
    47     8     9    1
    48    29    30    1
@<TRIPOS>MOLECULE
*****
 44 48 0 0 0
SMALL
GASTEIGER

@<TRIPOS>ATOM
      1 C          63.7388   86.1092   13.9506 C.ar    1  UNL1        0.2220
      2 N          63.2740   85.2449   15.0850 N.ar    1  UNL1       -0.2110
      3 C          62.9849   85.8560   16.4239 C.ar    1  UNL1        0.1160
      4 C          63.1607   87.3315   16.6286 C.ar    1  UNL1        0.1085
      5 CL         62.8717   87.9427   17.9676 Cl      1  UNL1       -0.0777
      6 C          63.6256   88.1960   15.4942 C.ar    1  UNL1        0.1473
      7 N          63.9146   87.5848   14.1552 N.ar    1  UNL1       -0.1976
      8 N          64.0279   85.4981   12.6115 N.pl3   1  UNL1       -0.2801
      9 H          64.8517   84.9763   12.4760 H       1  UNL1        0.1552
     10 C          62.5901   84.4930   10.6952 C.ar    1  UNL1        0.1517
     11 C          61.6238   84.6768    9.5626 C.ar    1  UNL1        0.0337
     12 C          61.1293   86.0494    9.2138 C.ar    1  UNL1       -0.0216
     13 C          61.6010   87.2380    9.9976 C.ar    1  UNL1       -0.0233
     14 C          62.5672   87.0544   11.1302 C.ar    1  UNL1        0.0132
     15 C          63.0617   85.6818   11.4790 C.ar    1  UNL1        0.0846
     16 C          61.2357   88.6818    9.8177 C.3     1  UNL1        0.0434
     17 C          60.3085   89.2932    8.8094 C.3     1  UNL1        0.0772
     18 N          59.5177   88.6120    7.7322 N.3     1  UNL1       -0.2644
     19 C          59.4586   87.1511    7.3971 C.3     1  UNL1        0.0772
     20 C          60.1759   86.0106    8.0565 C.3     1  UNL1        0.0435
     21 C          64.3570   82.6057   10.4394 C.3     1  UNL1        0.2525
     22 O          63.0845   83.1205   11.0439 O.3     1  UNL1       -0.4702
     23 C          58.6744   89.5105    6.8769 C.3     1  UNL1        0.1587
     24 C          59.3197   90.3814    5.8399 C.2     1  UNL1        0.2421
     25 O          60.8098   90.3643    5.6680 O.2     1  UNL1       -0.2734
     26 N          58.4750   91.2693    4.9750 N.am    1  UNL1       -0.2749
     27 C          59.1204   92.1401    3.9381 C.3     1  UNL1        0.1149
     28 C          56.9850   91.2863    5.1470 C.3     1  UNL1        0.1149
     29 N          63.8014   89.6715   15.6988 N.pl3   1  UNL1       -0.2948
     30 H          63.4850   90.0944   16.5297 H       1  UNL1        0.1537
     31 C          64.4591   90.5027   14.6375 C.ar    1  UNL1        0.0839
     32 C          65.8304   91.0654   14.8681 C.ar    1  UNL1        0.0190
     33 C          66.4881   91.8967   13.8067 C.ar    1  UNL1        0.0160
     34 C          65.7746   92.1652   12.5149 C.ar    1  UNL1        0.0511
     35 C          64.4035   91.6026   12.2844 C.ar    1  UNL1        0.0527
     36 C          63.7457   90.7713   13.3457 C.ar    1  UNL1        0.1532
     37 N          66.4324   92.9965   11.4536 N.pl3   1  UNL1       -0.3027
     38 C          67.3311   92.3481   10.4426 C.3     1  UNL1        0.1231
     39 C          67.9888   93.1794    9.3814 C.3     1  UNL1        0.1636
     40 O          67.7479   94.6591    9.3311 O.3     1  UNL1       -0.3501
     41 C          66.8493   95.3074   10.3421 C.3     1  UNL1        0.1636
     42 C          66.1916   94.4762   11.4033 C.3     1  UNL1        0.1231
     43 O          62.3745   90.2086   13.1152 O.3     1  UNL1       -0.4701
     44 C          61.5509   90.6905   11.9579 C.3     1  UNL1        0.2525
@<TRIPOS>BOND
     1    21    22    1
     2    22    10    1
     3    10    11   ar
     4    11    12   ar
     5    12    13   ar
     6    13    14   ar
     7    14    15   ar
     8    15     8    1
     9     8     1    1
    10     1     2   ar
    11     2     3   ar
    12     3     4   ar
    13     4     5    1
    14     4     6   ar
    15     6    29    1
    16    29    31    1
    17    31    32   ar
    18    32    33   ar
    19    33    34   ar
    20    34    37    1
    21    37    38    1
    22    38    39    1
    23    39    40    1
    24    40    41    1
    25    41    42    1
    26    34    35   ar
    27    35    36   ar
    28    36    43    1
    29    43    44    1
    30     6     7   ar
    31    13    16    1
    32    16    17    1
    33    17    18    1
    34    18    23    1
    35    23    24    1
    36    24    25    2
    37    24    26   am
    38    26    27    1
    39    26    28    1
    40    18    19    1
    41    19    20    1
    42    15    10   ar
    43     7     1   ar
    44    20    12    1
    45    36    31   ar
    46    42    37    1
    47     8     9    1
    48    29    30    1
@<TRIPOS>MOLECULE
*****
 44 48 0 0 0
SMALL
GASTEIGER

@<TRIPOS>ATOM
      1 C          59.4319   88.5048    7.4724 C.ar    1  UNL1        0.2220
      2 N          59.7279   87.2030    6.7883 N.ar    1  UNL1       -0.2110
      3 C          60.6010   86.1847    7.4594 C.ar    1  UNL1        0.1160
      4 C          61.1783   86.4680    8.8146 C.ar    1  UNL1        0.1085
      5 CL         62.0515   85.4496    9.4858 Cl      1  UNL1       -0.0777
      6 C          60.8823   87.7697    9.4987 C.ar    1  UNL1        0.1473
      7 N          60.0091   88.7881    8.8276 N.ar    1  UNL1       -0.1976
      8 N          58.5587   89.5232    6.8013 N.pl3   1  UNL1       -0.2801
      9 H          57.6102   89.6010    7.0532 H       1  UNL1        0.1552
     10 C          58.2738   91.4823    5.1188 C.ar    1  UNL1        0.1517
     11 C          58.8459   92.3822    4.0638 C.ar    1  UNL1        0.0337
     12 C          60.2749   92.2229    3.6364 C.ar    1  UNL1       -0.0216
     13 C          61.1317   91.1638    4.2640 C.ar    1  UNL1       -0.0233
     14 C          60.5598   90.2639    5.3189 C.ar    1  UNL1        0.0132
     15 C          59.1308   90.4231    5.7463 C.ar    1  UNL1        0.0846
     16 C          62.5694   90.8377    3.9862 C.3     1  UNL1        0.0434
     17 C          63.5050   91.4904    3.0121 C.3     1  UNL1        0.0772
     18 N          63.2342   92.6301    2.0754 N.3     1  UNL1       -0.2644
     19 C          61.9608   93.3989    1.8813 C.3     1  UNL1        0.0772
     20 C          60.6438   93.2177    2.5760 C.3     1  UNL1        0.0435
     21 C          55.7564   90.9207    4.8076 C.3     1  UNL1        0.2525
     22 O          56.8449   91.6416    5.5461 O.3     1  UNL1       -0.4702
     23 C          64.3894   93.0578    1.2196 C.3     1  UNL1        0.1587
     24 C          64.7940   94.5015    1.1724 C.2     1  UNL1        0.2421
     25 O          65.2348   95.1981    2.4256 O.2     1  UNL1       -0.2734
     26 N          64.7578   95.2485   -0.1278 N.am    1  UNL1       -0.2749
     27 C          65.1623   96.6921   -0.1749 C.3     1  UNL1        0.1149
     28 C          64.3170   94.5518   -1.3809 C.3     1  UNL1        0.1149
     29 N          61.4595   88.0531   10.8539 N.pl3   1  UNL1       -0.2948
     30 H          61.2428   87.4659   11.6138 H       1  UNL1        0.1537
     31 C          62.3669   89.2310   11.0513 C.ar    1  UNL1        0.0839
     32 C          62.4008   90.3308   10.0318 C.ar    1  UNL1        0.0190
     33 C          63.3083   91.5088   10.2292 C.ar    1  UNL1        0.0160
     34 C          64.1818   91.5869   11.4462 C.ar    1  UNL1        0.0511
     35 C          64.1479   90.4872   12.4656 C.ar    1  UNL1        0.0527
     36 C          63.2404   89.3092   12.2682 C.ar    1  UNL1        0.1532
     37 N          65.0892   92.7649   11.6435 N.pl3   1  UNL1       -0.3027
     38 C          65.7174   93.0117   12.9832 C.3     1  UNL1        0.1231
     39 C          66.6248   94.1897   13.1804 C.3     1  UNL1        0.1636
     40 O          66.9040   95.1209   12.0382 O.3     1  UNL1       -0.3501
     41 C          66.2758   94.8741   10.6986 C.3     1  UNL1        0.1636
     42 C          65.3685   93.6962   10.5013 C.3     1  UNL1        0.1231
     43 O          63.2065   88.2095   13.2877 O.3     1  UNL1       -0.4701
     44 C          64.2458   88.1559   14.3679 C.3     1  UNL1        0.2525
@<TRIPOS>BOND
     1    21    22    1
     2    22    10    1
     3    10    11   ar
     4    11    12   ar
     5    12    13   ar
     6    13    14   ar
     7    14    15   ar
     8    15     8    1
     9     8     1    1
    10     1     2   ar
    11     2     3   ar
    12     3     4   ar
    13     4     5    1
    14     4     6   ar
    15     6    29    1
    16    29    31    1
    17    31    32   ar
    18    32    33   ar
    19    33    34   ar
    20    34    37    1
    21    37    38    1
    22    38    39    1
    23    39    40    1
    24    40    41    1
    25    41    42    1
    26    34    35   ar
    27    35    36   ar
    28    36    43    1
    29    43    44    1
    30     6     7   ar
    31    13    16    1
    32    16    17    1
    33    17    18    1
    34    18    23    1
    35    23    24    1
    36    24    25    2
    37    24    26   am
    38    26    27    1
    39    26    28    1
    40    18    19    1
    41    19    20    1
    42    15    10   ar
    43     7     1   ar
    44    20    12    1
    45    36    31   ar
    46    42    37    1
    47     8     9    1
    48    29    30    1
@<TRIPOS>MOLECULE
*****
 44 48 0 0 0
SMALL
GASTEIGER

@<TRIPOS>ATOM
      1 C          59.9733   88.7237    8.0115 C.ar    1  UNL1        0.2220
      2 N          60.7588   87.4470    8.0690 N.ar    1  UNL1       -0.2110
      3 C          61.6893   87.1900    9.2169 C.ar    1  UNL1        0.1160
      4 C          61.8345   88.2096   10.3075 C.ar    1  UNL1        0.1085
      5 CL         62.7651   87.9526   11.4555 Cl      1  UNL1       -0.0777
      6 C          61.0491   89.4863   10.2501 C.ar    1  UNL1        0.1473
      7 N          60.1185   89.7433    9.1021 N.ar    1  UNL1       -0.1976
      8 N          59.0427   88.9807    6.8635 N.pl3   1  UNL1       -0.2801
      9 H          58.2212   88.4469    6.7667 H       1  UNL1        0.1552
     10 C          58.2886   90.9854    5.3930 C.ar    1  UNL1        0.1517
     11 C          58.6097   92.0558    4.3924 C.ar    1  UNL1        0.0337
     12 C          60.0062   92.1918    3.8617 C.ar    1  UNL1       -0.0216
     13 C          61.0813   91.2575    4.3317 C.ar    1  UNL1       -0.0233
     14 C          60.7603   90.1872    5.3322 C.ar    1  UNL1        0.0132
     15 C          59.3639   90.0511    5.8629 C.ar    1  UNL1        0.0846
     16 C          62.5271   91.2195    3.9335 C.3     1  UNL1        0.0434
     17 C          63.2546   92.1066    2.9670 C.3     1  UNL1        0.0772
     18 N          62.7160   93.2505    2.1601 N.3     1  UNL1       -0.2644
     19 C          61.3170   93.7901    2.1202 C.3     1  UNL1        0.0772
     20 C          60.1110   93.3190    2.8775 C.3     1  UNL1        0.0435
     21 C          55.7240   91.2496    5.0721 C.3     1  UNL1        0.2525
     22 O          56.8922   90.8494    5.9236 O.3     1  UNL1       -0.4702
     23 C          63.7077   93.9470    1.2760 C.3     1  UNL1        0.1587
     24 C          63.5101   93.9564   -0.2109 C.2     1  UNL1        0.2421
     25 O          62.4601   93.0845   -0.8335 O.2     1  UNL1       -0.2734
     26 N          64.3624   94.8375   -1.0753 N.am    1  UNL1       -0.2749
     27 C          64.1648   94.8468   -2.5622 C.3     1  UNL1        0.1149
     28 C          65.4123   95.7093   -0.4528 C.3     1  UNL1        0.1149
     29 N          61.1942   90.5059   11.3406 N.pl3   1  UNL1       -0.2948
     30 H          60.3944   90.9289   11.7286 H       1  UNL1        0.1537
     31 C          62.5579   90.8811   11.8400 C.ar    1  UNL1        0.0839
     32 C          63.5206   91.5882   10.9325 C.ar    1  UNL1        0.0190
     33 C          64.8844   91.9634   11.4320 C.ar    1  UNL1        0.0160
     34 C          65.2854   91.6315   12.8388 C.ar    1  UNL1        0.0511
     35 C          64.3229   90.9245   13.7461 C.ar    1  UNL1        0.0527
     36 C          62.9591   90.5492   13.2467 C.ar    1  UNL1        0.1532
     37 N          66.6492   92.0067   13.3381 N.pl3   1  UNL1       -0.3027
     38 C          66.7931   92.7941   14.6068 C.3     1  UNL1        0.1231
     39 C          68.1568   93.1693   15.1060 C.3     1  UNL1        0.1636
     40 O          69.3768   92.7571   14.3367 O.3     1  UNL1       -0.3501
     41 C          69.2329   91.9697   13.0681 C.3     1  UNL1        0.1636
     42 C          67.8692   91.5946   12.5688 C.3     1  UNL1        0.1231
     43 O          61.9964   89.8422   14.1540 O.3     1  UNL1       -0.4701
     44 C          62.4090   89.4811   15.5503 C.3     1  UNL1        0.2525
@<TRIPOS>BOND
     1    21    22    1
     2    22    10    1
     3    10    11   ar
     4    11    12   ar
     5    12    13   ar
     6    13    14   ar
     7    14    15   ar
     8    15     8    1
     9     8     1    1
    10     1     2   ar
    11     2     3   ar
    12     3     4   ar
    13     4     5    1
    14     4     6   ar
    15     6    29    1
    16    29    31    1
    17    31    32   ar
    18    32    33   ar
    19    33    34   ar
    20    34    37    1
    21    37    38    1
    22    38    39    1
    23    39    40    1
    24    40    41    1
    25    41    42    1
    26    34    35   ar
    27    35    36   ar
    28    36    43    1
    29    43    44    1
    30     6     7   ar
    31    13    16    1
    32    16    17    1
    33    17    18    1
    34    18    23    1
    35    23    24    1
    36    24    25    2
    37    24    26   am
    38    26    27    1
    39    26    28    1
    40    18    19    1
    41    19    20    1
    42    15    10   ar
    43     7     1   ar
    44    20    12    1
    45    36    31   ar
    46    42    37    1
    47     8     9    1
    48    29    30    1
