@<TRIPOS>MOLECULE
*****
 47 51 0 0 0
SMALL
GASTEIGER

@<TRIPOS>ATOM
      1 C          60.7372   86.9056    9.3993 C.3     1  UNL1        0.0964
      2 C          59.8707   86.0987    8.4784 C.3     1  UNL1        0.0780
      3 N          58.9004   86.7881    7.5657 N.3     1  UNL1       -0.2970
      4 C          58.7966   88.2845    7.5738 C.3     1  UNL1        0.0689
      5 C          59.6631   89.0914    8.4947 C.3     1  UNL1        0.0220
      6 C          60.6334   88.4020    9.4074 C.3     1  UNL1        0.0337
      7 H          57.9740   86.4275    7.7941 H       1  UNL1        0.1233
      8 C          61.5000   89.2089   10.3283 C.ar    1  UNL1       -0.0217
      9 C          61.1416   89.3317   11.7796 C.ar    1  UNL1       -0.0012
     10 C          62.0081   90.1386   12.7005 C.ar    1  UNL1        0.0366
     11 C          63.2330   90.8228   12.1700 C.ar    1  UNL1        0.1387
     12 C          63.5914   90.7000   10.7187 C.ar    1  UNL1        0.0366
     13 C          62.7249   89.8931    9.7978 C.ar    1  UNL1       -0.0012
     14 O          64.0995   91.6297   13.0909 O.3     1  UNL1       -0.4714
     15 C          65.4693   92.0546   12.6513 C.3     1  UNL1        0.2525
     16 C          65.8783   93.4938   12.7576 C.3     1  UNL1        0.2525
     17 O          67.0775   93.9902   12.0055 O.3     1  UNL1       -0.4697
     18 C          66.9001   94.7066   10.6997 C.ar    1  UNL1        0.1596
     19 C          67.2773   94.0295    9.4155 C.ar    1  UNL1        0.0921
     20 CL         67.8319   92.6361    9.4371 Cl      1  UNL1       -0.0791
     21 C          67.0999   94.7460    8.1096 C.ar    1  UNL1        0.0103
     22 C          66.5453   96.1395    8.0879 C.ar    1  UNL1       -0.0200
     23 C          66.3679   96.8559    6.7821 C.3     1  UNL1        0.0311
     24 C          66.1680   96.8166    9.3722 C.ar    1  UNL1        0.0103
     25 C          66.3454   96.1002   10.6781 C.ar    1  UNL1        0.0921
     26 CL         65.9682   96.7773   11.9623 Cl      1  UNL1       -0.0791
     27 N          62.7125   85.2547    9.7501 N.am    1  UNL1       -0.2770
     28 C          61.7076   86.2161   10.3120 C.2     1  UNL1        0.2270
     29 O          61.6730   86.4881   11.7868 O.2     1  UNL1       -0.2748
     30 C          62.7471   84.9828    8.2753 C.3     1  UNL1        0.0758
     31 C          63.5219   84.8346    6.9996 C.3     1  UNL1        0.0215
     32 C          62.0322   84.6599    6.9968 C.3     1  UNL1        0.0215
     33 C          63.6828   84.5652   10.6628 C.3     1  UNL1        0.1209
     34 C          62.5071   83.8277   14.3809 C.ar    1  UNL1       -0.0207
     35 C          62.1846   82.3655   14.2914 C.ar    1  UNL1       -0.0034
     36 C          62.3616   81.6365   12.9925 C.ar    1  UNL1        0.0108
     37 C          62.8610   82.3698   11.7829 C.ar    1  UNL1        0.0553
     38 CL         63.0380   81.6409   10.4840 Cl      1  UNL1       -0.0825
     39 C          63.1834   83.8320   11.8724 C.ar    1  UNL1        0.0079
     40 C          63.0065   84.5610   13.1714 C.ar    1  UNL1       -0.0060
     41 C          62.3301   84.5566   15.6798 C.3     1  UNL1        0.0476
     42 C          63.4482   85.3918   16.2296 C.3     1  UNL1        0.0941
     43 C          63.2516   89.3556   16.2130 C.3     1  UNL1        0.0946
     44 C          63.5159   87.9477   15.7680 C.2     1  UNL1        0.2230
     45 O          64.1122   87.6878   14.4164 O.2     1  UNL1       -0.2751
     46 N          63.1839   86.7998   16.6746 N.am    1  UNL1       -0.3040
     47 H          62.7925   86.9703   17.5617 H       1  UNL1        0.1494
@<TRIPOS>BOND
     1    43    44    1
     2    44    45    2
     3    44    46   am
     4    46    42    1
     5    42    41    1
     6    41    34    1
     7    34    35   ar
     8    35    36   ar
     9    36    37   ar
    10    37    38    1
    11    37    39   ar
    12    39    33    1
    13    33    27    1
    14    27    28   am
    15    28    29    2
    16     1    28    1
    17     1     2    1
    18     2     3    1
    19     3     4    1
    20     4     5    1
    21     5     6    1
    22     6     8    1
    23     8     9   ar
    24     9    10   ar
    25    10    11   ar
    26    11    14    1
    27    14    15    1
    28    15    16    1
    29    16    17    1
    30    17    18    1
    31    18    19   ar
    32    19    20    1
    33    19    21   ar
    34    21    22   ar
    35    22    23    1
    36    22    24   ar
    37    24    25   ar
    38    25    26    1
    39    11    12   ar
    40    12    13   ar
    41    27    30    1
    42    30    31    1
    43    31    32    1
    44    39    40   ar
    45    40    34   ar
    46     6     1    1
    47    13     8   ar
    48    32    30    1
    49    25    18   ar
    50    46    47    1
    51     3     7    1
@<TRIPOS>MOLECULE
*****
 47 51 0 0 0
SMALL
GASTEIGER

@<TRIPOS>ATOM
      1 C          61.0740   88.7124    9.4176 C.3     1  UNL1        0.0964
      2 C          60.2809   89.8960    8.9484 C.3     1  UNL1        0.0780
      3 N          59.3271   89.7521    7.7998 N.3     1  UNL1       -0.2970
      4 C          59.1663   88.4246    7.1203 C.3     1  UNL1        0.0689
      5 C          59.9595   87.2410    7.5894 C.3     1  UNL1        0.0220
      6 C          60.9133   87.3849    8.7380 C.3     1  UNL1        0.0337
      7 H          59.6256   90.4149    7.0843 H       1  UNL1        0.1233
      8 C          61.7064   86.2013    9.2072 C.ar    1  UNL1       -0.0217
      9 C          61.5227   85.6805   10.6018 C.ar    1  UNL1       -0.0012
     10 C          62.3158   84.4969   11.0709 C.ar    1  UNL1        0.0366
     11 C          63.2926   83.8341   10.1454 C.ar    1  UNL1        0.1387
     12 C          63.4763   84.3550    8.7508 C.ar    1  UNL1        0.0366
     13 C          62.6832   85.5386    8.2817 C.ar    1  UNL1       -0.0012
     14 O          64.0857   82.6505   10.6145 O.3     1  UNL1       -0.4714
     15 C          63.4712   81.6641   11.5629 C.3     1  UNL1        0.2525
     16 C          63.8147   81.7126   13.0222 C.3     1  UNL1        0.2525
     17 O          64.6564   82.8329   13.5578 O.3     1  UNL1       -0.4697
     18 C          64.0774   83.7981   14.5493 C.ar    1  UNL1        0.1596
     19 C          62.6914   83.5852   15.0818 C.ar    1  UNL1        0.0921
     20 CL         61.8843   82.4071   14.6228 Cl      1  UNL1       -0.0791
     21 C          62.1124   84.5504   16.0734 C.ar    1  UNL1        0.0103
     22 C          62.9195   85.7284   16.5325 C.ar    1  UNL1       -0.0200
     23 C          62.3405   86.6936   17.5241 C.3     1  UNL1        0.0311
     24 C          64.3055   85.9414   16.0000 C.ar    1  UNL1        0.0103
     25 C          64.8845   84.9762   15.0084 C.ar    1  UNL1        0.0921
     26 CL         66.2705   85.1891   14.4759 Cl      1  UNL1       -0.0791
     27 N          61.5402   89.3784   11.8852 N.am    1  UNL1       -0.2770
     28 C          62.0279   88.8564   10.5663 C.2     1  UNL1        0.2270
     29 O          63.4694   88.4784   10.3960 O.2     1  UNL1       -0.2748
     30 C          60.0986   89.7565   12.0555 C.3     1  UNL1        0.0758
     31 C          58.7243   89.4400   12.5665 C.3     1  UNL1        0.0215
     32 C          58.9761   90.7277   11.8395 C.3     1  UNL1        0.0215
     33 C          62.4940   89.5224   13.0339 C.3     1  UNL1        0.1209
     34 C          64.9419   92.3217   11.6475 C.ar    1  UNL1       -0.0207
     35 C          65.7675   92.6056   12.8673 C.ar    1  UNL1       -0.0034
     36 C          65.5020   91.8618   14.1425 C.ar    1  UNL1        0.0108
     37 C          64.4108   90.8341   14.1981 C.ar    1  UNL1        0.0553
     38 CL         64.1453   90.0903   15.4733 Cl      1  UNL1       -0.0825
     39 C          63.5852   90.5501   12.9784 C.ar    1  UNL1        0.0079
     40 C          63.8507   91.2939   11.7031 C.ar    1  UNL1       -0.0060
     41 C          65.2074   93.0655   10.3723 C.3     1  UNL1        0.0476
     42 C          66.6165   93.3882    9.9718 C.3     1  UNL1        0.0941
     43 C          67.2614   96.8528    8.1466 C.3     1  UNL1        0.0946
     44 C          67.0010   95.8482    9.2296 C.2     1  UNL1        0.2230
     45 O          66.8648   96.2991   10.6538 O.2     1  UNL1       -0.2751
     46 N          66.8769   94.3928    8.8886 N.am    1  UNL1       -0.3040
     47 H          66.9663   94.0968    7.9539 H       1  UNL1        0.1494
@<TRIPOS>BOND
     1    43    44    1
     2    44    45    2
     3    44    46   am
     4    46    42    1
     5    42    41    1
     6    41    34    1
     7    34    35   ar
     8    35    36   ar
     9    36    37   ar
    10    37    38    1
    11    37    39   ar
    12    39    33    1
    13    33    27    1
    14    27    28   am
    15    28    29    2
    16     1    28    1
    17     1     2    1
    18     2     3    1
    19     3     4    1
    20     4     5    1
    21     5     6    1
    22     6     8    1
    23     8     9   ar
    24     9    10   ar
    25    10    11   ar
    26    11    14    1
    27    14    15    1
    28    15    16    1
    29    16    17    1
    30    17    18    1
    31    18    19   ar
    32    19    20    1
    33    19    21   ar
    34    21    22   ar
    35    22    23    1
    36    22    24   ar
    37    24    25   ar
    38    25    26    1
    39    11    12   ar
    40    12    13   ar
    41    27    30    1
    42    30    31    1
    43    31    32    1
    44    39    40   ar
    45    40    34   ar
    46     6     1    1
    47    13     8   ar
    48    32    30    1
    49    25    18   ar
    50    46    47    1
    51     3     7    1
@<TRIPOS>MOLECULE
*****
 47 51 0 0 0
SMALL
GASTEIGER

@<TRIPOS>ATOM
      1 C          60.7294   86.8554    9.3880 C.3     1  UNL1        0.0964
      2 C          59.7085   86.1090    8.5814 C.3     1  UNL1        0.0780
      3 N          58.7331   86.8611    7.7253 N.3     1  UNL1       -0.2970
      4 C          58.7787   88.3596    7.6758 C.3     1  UNL1        0.0689
      5 C          59.7996   89.1060    8.4824 C.3     1  UNL1        0.0220
      6 C          60.7750   88.3539    9.3385 C.3     1  UNL1        0.0337
      7 H          57.7999   86.6054    8.0480 H       1  UNL1        0.1233
      8 C          61.7959   89.1003   10.1451 C.ar    1  UNL1       -0.0217
      9 C          62.1684   88.6171   11.5154 C.ar    1  UNL1       -0.0012
     10 C          63.1894   89.3635   12.3220 C.ar    1  UNL1        0.0366
     11 C          63.8378   90.5931   11.7583 C.ar    1  UNL1        0.1387
     12 C          63.4652   91.0762   10.3880 C.ar    1  UNL1        0.0366
     13 C          62.4443   90.3298    9.5814 C.ar    1  UNL1       -0.0012
     14 O          64.8587   91.3394   12.5649 O.3     1  UNL1       -0.4714
     15 C          64.5372   91.7746   13.9639 C.3     1  UNL1        0.2525
     16 C          65.4071   92.7829   14.6543 C.3     1  UNL1        0.2525
     17 O          66.1617   93.7990   13.8491 O.3     1  UNL1       -0.4697
     18 C          66.8123   93.3997   12.5579 C.ar    1  UNL1        0.1596
     19 C          66.4859   94.1384   11.2938 C.ar    1  UNL1        0.0921
     20 CL         65.5090   95.2762   11.3210 Cl      1  UNL1       -0.0791
     21 C          67.1365   93.7391   10.0026 C.ar    1  UNL1        0.0103
     22 C          68.1135   92.6013    9.9754 C.ar    1  UNL1       -0.0200
     23 C          68.7641   92.2021    8.6841 C.3     1  UNL1        0.0311
     24 C          68.4399   91.8626   11.2395 C.ar    1  UNL1        0.0103
     25 C          67.7893   92.2618   12.5307 C.ar    1  UNL1        0.0921
     26 CL         68.1157   91.5232   13.7948 Cl      1  UNL1       -0.0791
     27 N          62.6841   85.1588    9.6128 N.am    1  UNL1       -0.2770
     28 C          61.7048   86.1033   10.2442 C.2     1  UNL1        0.2270
     29 O          61.7008   86.2957   11.7318 O.2     1  UNL1       -0.2748
     30 C          62.6881   84.9663    8.1252 C.3     1  UNL1        0.0758
     31 C          61.9417   84.7886    6.8364 C.3     1  UNL1        0.0215
     32 C          63.4415   84.8108    6.8375 C.3     1  UNL1        0.0215
     33 C          63.6595   84.4066   10.4690 C.3     1  UNL1        0.1209
     34 C          62.5102   83.5941   14.1797 C.ar    1  UNL1       -0.0207
     35 C          62.2050   82.1297   14.0676 C.ar    1  UNL1       -0.0034
     36 C          62.3846   81.4243   12.7561 C.ar    1  UNL1        0.0108
     37 C          62.8694   82.1833   11.5565 C.ar    1  UNL1        0.0553
     38 CL         63.0490   81.4780   10.2450 Cl      1  UNL1       -0.0825
     39 C          63.1747   83.6476   11.6685 C.ar    1  UNL1        0.0079
     40 C          62.9951   84.3530   12.9801 C.ar    1  UNL1       -0.0060
     41 C          62.3306   84.2994   15.4912 C.3     1  UNL1        0.0476
     42 C          63.4454   85.1297   16.0551 C.3     1  UNL1        0.0941
     43 C          63.0487   88.9968   16.8544 C.3     1  UNL1        0.0946
     44 C          63.0604   87.5071   17.0297 C.2     1  UNL1        0.2230
     45 O          62.6987   86.9051   18.3552 O.2     1  UNL1       -0.2751
     46 N          63.4337   86.6194   15.8797 N.am    1  UNL1       -0.3040
     47 H          63.6710   87.0145   15.0097 H       1  UNL1        0.1494
@<TRIPOS>BOND
     1    43    44    1
     2    44    45    2
     3    44    46   am
     4    46    42    1
     5    42    41    1
     6    41    34    1
     7    34    35   ar
     8    35    36   ar
     9    36    37   ar
    10    37    38    1
    11    37    39   ar
    12    39    33    1
    13    33    27    1
    14    27    28   am
    15    28    29    2
    16     1    28    1
    17     1     2    1
    18     2     3    1
    19     3     4    1
    20     4     5    1
    21     5     6    1
    22     6     8    1
    23     8     9   ar
    24     9    10   ar
    25    10    11   ar
    26    11    14    1
    27    14    15    1
    28    15    16    1
    29    16    17    1
    30    17    18    1
    31    18    19   ar
    32    19    20    1
    33    19    21   ar
    34    21    22   ar
    35    22    23    1
    36    22    24   ar
    37    24    25   ar
    38    25    26    1
    39    11    12   ar
    40    12    13   ar
    41    27    30    1
    42    30    31    1
    43    31    32    1
    44    39    40   ar
    45    40    34   ar
    46     6     1    1
    47    13     8   ar
    48    32    30    1
    49    25    18   ar
    50    46    47    1
    51     3     7    1
@<TRIPOS>MOLECULE
*****
 47 51 0 0 0
SMALL
GASTEIGER

@<TRIPOS>ATOM
      1 C          63.4574   87.0141   13.0777 C.3     1  UNL1        0.0964
      2 C          64.2281   86.2035   14.0772 C.3     1  UNL1        0.0780
      3 N          64.0751   84.7118   14.1110 N.3     1  UNL1       -0.2970
      4 C          63.1514   84.0306   13.1452 C.3     1  UNL1        0.0689
      5 C          62.3807   84.8412   12.1457 C.3     1  UNL1        0.0220
      6 C          62.5337   86.3329   12.1120 C.3     1  UNL1        0.0337
      7 H          63.7521   84.4700   15.0478 H       1  UNL1        0.1233
      8 C          61.7630   87.1435   11.1125 C.ar    1  UNL1       -0.0217
      9 C          61.9428   86.8924    9.6447 C.ar    1  UNL1       -0.0012
     10 C          61.1721   87.7030    8.6452 C.ar    1  UNL1        0.0366
     11 C          60.2216   88.7647    9.1135 C.ar    1  UNL1        0.1387
     12 C          60.0419   89.0158   10.5813 C.ar    1  UNL1        0.0366
     13 C          60.8126   88.2052   11.5808 C.ar    1  UNL1       -0.0012
     14 O          59.4509   89.5753    8.1140 O.3     1  UNL1       -0.4714
     15 C          59.5583   89.2615    6.6512 C.3     1  UNL1        0.2525
     16 C          59.6827   90.3739    5.6526 C.3     1  UNL1        0.2525
     17 O          61.0359   90.7858    5.1534 O.3     1  UNL1       -0.4697
     18 C          61.1530   91.6759    3.9517 C.ar    1  UNL1        0.1596
     19 C          60.0284   92.6005    3.5908 C.ar    1  UNL1        0.0921
     20 CL         58.7867   92.6351    4.4315 Cl      1  UNL1       -0.0791
     21 C          60.1455   93.4905    2.3890 C.ar    1  UNL1        0.0103
     22 C          61.3872   93.4559    1.5483 C.ar    1  UNL1       -0.0200
     23 C          61.5043   94.3460    0.3465 C.3     1  UNL1        0.0311
     24 C          62.5119   92.5313    1.9092 C.ar    1  UNL1        0.0103
     25 C          62.3948   91.6412    3.1109 C.ar    1  UNL1        0.0921
     26 CL         63.5194   90.7166    3.4719 Cl      1  UNL1       -0.0791
     27 N          63.5935   89.2907   14.3222 N.am    1  UNL1       -0.2770
     28 C          63.6105   88.5060   13.0440 C.2     1  UNL1        0.2270
     29 O          63.7805   89.2130   11.7321 O.2     1  UNL1       -0.2748
     30 C          63.4234   88.5837   15.6342 C.3     1  UNL1        0.0758
     31 C          63.4580   87.3213   16.4435 C.3     1  UNL1        0.0215
     32 C          63.0943   88.6215   17.0971 C.3     1  UNL1        0.0215
     33 C          63.7465   90.7825   14.2885 C.3     1  UNL1        0.1209
     34 C          67.4844   91.9638   13.6694 C.ar    1  UNL1       -0.0207
     35 C          67.7853   92.6459   14.9710 C.ar    1  UNL1       -0.0034
     36 C          66.7401   92.7069   16.0451 C.ar    1  UNL1        0.0108
     37 C          65.3938   92.0857   15.8176 C.ar    1  UNL1        0.0553
     38 CL         64.3485   92.1467   16.8916 Cl      1  UNL1       -0.0825
     39 C          65.0928   91.4037   14.5160 C.ar    1  UNL1        0.0079
     40 C          66.1381   91.3427   13.4419 C.ar    1  UNL1       -0.0060
     41 C          68.5296   91.9029   12.5953 C.3     1  UNL1        0.0476
     42 C          68.1233   91.9190   11.1515 C.3     1  UNL1        0.0941
     43 C          67.5440   94.7209    8.4012 C.3     1  UNL1        0.0946
     44 C          67.9664   93.4347    9.0472 C.2     1  UNL1        0.2230
     45 O          68.6544   92.3779    8.2348 O.2     1  UNL1       -0.2751
     46 N          67.7008   93.2052   10.5056 N.am    1  UNL1       -0.3040
     47 H          67.2493   93.8988   11.0388 H       1  UNL1        0.1494
@<TRIPOS>BOND
     1    43    44    1
     2    44    45    2
     3    44    46   am
     4    46    42    1
     5    42    41    1
     6    41    34    1
     7    34    35   ar
     8    35    36   ar
     9    36    37   ar
    10    37    38    1
    11    37    39   ar
    12    39    33    1
    13    33    27    1
    14    27    28   am
    15    28    29    2
    16     1    28    1
    17     1     2    1
    18     2     3    1
    19     3     4    1
    20     4     5    1
    21     5     6    1
    22     6     8    1
    23     8     9   ar
    24     9    10   ar
    25    10    11   ar
    26    11    14    1
    27    14    15    1
    28    15    16    1
    29    16    17    1
    30    17    18    1
    31    18    19   ar
    32    19    20    1
    33    19    21   ar
    34    21    22   ar
    35    22    23    1
    36    22    24   ar
    37    24    25   ar
    38    25    26    1
    39    11    12   ar
    40    12    13   ar
    41    27    30    1
    42    30    31    1
    43    31    32    1
    44    39    40   ar
    45    40    34   ar
    46     6     1    1
    47    13     8   ar
    48    32    30    1
    49    25    18   ar
    50    46    47    1
    51     3     7    1
@<TRIPOS>MOLECULE
*****
 47 51 0 0 0
SMALL
GASTEIGER

@<TRIPOS>ATOM
      1 C          62.4779   84.3601   12.7861 C.3     1  UNL1        0.0964
      2 C          62.0751   82.9152   12.7733 C.3     1  UNL1        0.0780
      3 N          62.2102   82.0878   14.0171 N.3     1  UNL1       -0.2970
      4 C          62.7482   82.7053   15.2738 C.3     1  UNL1        0.0689
      5 C          63.1510   84.1502   15.2866 C.3     1  UNL1        0.0220
      6 C          63.0158   84.9775   14.0428 C.3     1  UNL1        0.0337
      7 H          62.8248   81.3072   13.7861 H       1  UNL1        0.1233
      8 C          63.4187   86.4224   14.0557 C.ar    1  UNL1       -0.0217
      9 C          63.7922   87.0854   15.3483 C.ar    1  UNL1       -0.0012
     10 C          64.1950   88.5302   15.3611 C.ar    1  UNL1        0.0366
     11 C          64.2243   89.3121   14.0814 C.ar    1  UNL1        0.1387
     12 C          63.8508   88.6491   12.7888 C.ar    1  UNL1        0.0366
     13 C          63.4479   87.2042   12.7759 C.ar    1  UNL1       -0.0012
     14 O          64.6271   90.7569   14.0943 O.3     1  UNL1       -0.4714
     15 C          65.0621   91.4256   12.8240 C.3     1  UNL1        0.2525
     16 C          66.2472   92.3451   12.8282 C.3     1  UNL1        0.2525
     17 O          67.2148   92.3268   11.6821 O.3     1  UNL1       -0.4697
     18 C          67.2333   93.4589   10.6982 C.ar    1  UNL1        0.1596
     19 C          67.8193   93.2560    9.3324 C.ar    1  UNL1        0.0921
     20 CL         68.3867   91.9211    8.9505 Cl      1  UNL1       -0.0791
     21 C          67.8379   94.3881    8.3485 C.ar    1  UNL1        0.0103
     22 C          67.2705   95.7231    8.7304 C.ar    1  UNL1       -0.0200
     23 C          67.2890   96.8551    7.7465 C.3     1  UNL1        0.0311
     24 C          66.6844   95.9260   10.0962 C.ar    1  UNL1        0.0103
     25 C          66.6659   94.7939   11.0801 C.ar    1  UNL1        0.0921
     26 CL         66.0799   94.9968   12.4459 Cl      1  UNL1       -0.0791
     27 N          63.0383   84.7659   10.2819 N.am    1  UNL1       -0.2770
     28 C          62.3428   85.1874   11.5422 C.2     1  UNL1        0.2270
     29 O          61.5121   86.4363   11.5587 O.2     1  UNL1       -0.2748
     30 C          63.8691   83.5171   10.2654 C.3     1  UNL1        0.0758
     31 C          64.1832   82.1736    9.6769 C.3     1  UNL1        0.0215
     32 C          64.9937   82.6975   10.8252 C.3     1  UNL1        0.0215
     33 C          62.9032   85.5933    9.0379 C.3     1  UNL1        0.1209
     34 C          61.4571   89.2350    9.6680 C.ar    1  UNL1       -0.0207
     35 C          60.1270   89.1344    8.9817 C.ar    1  UNL1       -0.0034
     36 C          59.7224   87.8536    8.3142 C.ar    1  UNL1        0.0108
     37 C          60.6478   86.6732    8.3330 C.ar    1  UNL1        0.0553
     38 CL         60.2432   85.3923    7.6655 Cl      1  UNL1       -0.0825
     39 C          61.9778   86.7737    9.0192 C.ar    1  UNL1        0.0079
     40 C          62.3825   88.0546    9.6867 C.ar    1  UNL1       -0.0060
     41 C          61.8617   90.5159   10.3354 C.3     1  UNL1        0.0476
     42 C          61.5795   90.7233   11.7940 C.3     1  UNL1        0.0941
     43 C          58.2207   89.0435   13.0773 C.3     1  UNL1        0.0946
     44 C          59.1589   89.9655   12.3565 C.2     1  UNL1        0.2230
     45 O          58.6145   91.0520   11.4771 O.2     1  UNL1       -0.2751
     46 N          60.6414   89.8012   12.5149 N.am    1  UNL1       -0.3040
     47 H          60.9987   89.0881   13.0921 H       1  UNL1        0.1494
@<TRIPOS>BOND
     1    43    44    1
     2    44    45    2
     3    44    46   am
     4    46    42    1
     5    42    41    1
     6    41    34    1
     7    34    35   ar
     8    35    36   ar
     9    36    37   ar
    10    37    38    1
    11    37    39   ar
    12    39    33    1
    13    33    27    1
    14    27    28   am
    15    28    29    2
    16     1    28    1
    17     1     2    1
    18     2     3    1
    19     3     4    1
    20     4     5    1
    21     5     6    1
    22     6     8    1
    23     8     9   ar
    24     9    10   ar
    25    10    11   ar
    26    11    14    1
    27    14    15    1
    28    15    16    1
    29    16    17    1
    30    17    18    1
    31    18    19   ar
    32    19    20    1
    33    19    21   ar
    34    21    22   ar
    35    22    23    1
    36    22    24   ar
    37    24    25   ar
    38    25    26    1
    39    11    12   ar
    40    12    13   ar
    41    27    30    1
    42    30    31    1
    43    31    32    1
    44    39    40   ar
    45    40    34   ar
    46     6     1    1
    47    13     8   ar
    48    32    30    1
    49    25    18   ar
    50    46    47    1
    51     3     7    1
