@<TRIPOS>MOLECULE
*****
 35 39 0 0 0
SMALL
GASTEIGER

@<TRIPOS>ATOM
      1 C          65.3965   91.7037   13.5025 C.ar    1  UNL1       -0.0042
      2 C          65.6544   90.7246   14.6093 C.ar    1  UNL1       -0.0014
      3 C          65.0468   89.3543   14.5553 C.ar    1  UNL1        0.0144
      4 C          64.1812   88.9629   13.3944 C.ar    1  UNL1        0.0516
      5 C          63.9233   89.9419   12.2876 C.ar    1  UNL1        0.0144
      6 C          64.5310   91.3123   12.3416 C.ar    1  UNL1       -0.0014
      7 N          63.5736   87.5925   13.3404 N.am    1  UNL1       -0.2681
      8 C          64.2183   86.4567   14.0780 C.2     1  UNL1        0.3077
      9 O          65.4706   86.6911   14.8697 O.2     1  UNL1       -0.2522
     10 N          63.6106   85.0863   14.0240 N.am    1  UNL1       -0.2632
     11 C          63.9554   83.7493   14.6101 C.3     1  UNL1        0.1010
     12 C          62.7513   83.1484   13.9476 C.3     1  UNL1        0.0636
     13 C          62.4065   84.4853   13.3615 C.3     1  UNL1        0.1010
     14 H          62.7517   87.4386   12.8208 H       1  UNL1        0.1564
     15 C          62.1436   81.7780   13.8936 C.ar    1  UNL1        0.0012
     16 C          62.9745   80.6056   13.4634 C.ar    1  UNL1        0.0948
     17 N          62.3669   79.2352   13.4094 N.ar    1  UNL1       -0.2414
     18 C          60.9283   79.0373   13.7856 C.ar    1  UNL1        0.1129
     19 C          60.0975   80.2098   14.2157 C.ar    1  UNL1        0.0607
     20 N          58.6589   80.0119   14.5919 N.pl3   1  UNL1       -0.3558
     21 C          60.7051   81.5801   14.2697 C.ar    1  UNL1        0.0130
     22 H          58.2601   79.1125   14.5565 H       1  UNL1        0.1424
     23 H          58.1136   80.7814   14.8742 H       1  UNL1        0.1424
     24 C          66.3403   93.6936   14.8805 C.3     1  UNL1        0.0264
     25 C          66.0042   93.0740   13.5565 C.3     1  UNL1        0.0985
     26 N          66.2756   93.8247   12.2866 N.am    1  UNL1       -0.2699
     27 C          65.7660   95.1936   11.9454 C.3     1  UNL1        0.1208
     28 C          66.2798   95.5532   10.5828 C.ar    1  UNL1        0.0021
     29 C          66.1013   96.7767    9.7335 C.ar    1  UNL1       -0.0025
     30 C          66.7499   96.8534    8.3832 C.ar    1  UNL1       -0.0003
     31 C          67.5771   95.7068    7.8822 C.ar    1  UNL1        0.0001
     32 C          67.7555   94.4833    8.7315 C.ar    1  UNL1        0.0043
     33 C          67.1069   94.4066   10.0818 C.ar    1  UNL1        0.0512
     34 C          67.1043   93.3383   11.1348 C.2     1  UNL1        0.2492
     35 O          67.8071   92.0157   11.0507 O.2     1  UNL1       -0.2699
@<TRIPOS>BOND
     1    25    24    1
     2    25     1    1
     3     1     2   ar
     4     2     3   ar
     5     3     4   ar
     6     4     7    1
     7     7     8   am
     8     8     9    2
     9     8    10   am
    10    10    11    1
    11    11    12    1
    12    12    15    1
    13    15    16   ar
    14    16    17   ar
    15    17    18   ar
    16    18    19   ar
    17    19    20    1
    18    19    21   ar
    19    12    13    1
    20     4     5   ar
    21     5     6   ar
    22    25    26    1
    23    26    27    1
    24    27    28    1
    25    28    29   ar
    26    29    30   ar
    27    30    31   ar
    28    31    32   ar
    29    32    33   ar
    30    33    34    1
    31    34    35    2
    32     6     1   ar
    33    34    26   am
    34    13    10    1
    35    33    28   ar
    36    21    15   ar
    37     7    14    1
    38    20    22    1
    39    20    23    1
@<TRIPOS>MOLECULE
*****
 35 39 0 0 0
SMALL
GASTEIGER

@<TRIPOS>ATOM
      1 C          59.1482   95.0726   -0.2418 C.ar    1  UNL1       -0.0042
      2 C          58.7680   93.6231   -0.3091 C.ar    1  UNL1       -0.0014
      3 C          59.0689   92.7144    0.8457 C.ar    1  UNL1        0.0144
      4 C          59.7500   93.2550    2.0679 C.ar    1  UNL1        0.0516
      5 C          60.1302   94.7045    2.1353 C.ar    1  UNL1        0.0144
      6 C          59.8293   95.6133    0.9804 C.ar    1  UNL1       -0.0014
      7 N          60.0509   92.3462    3.2227 N.am    1  UNL1       -0.2681
      8 C          58.9366   91.8456    4.0932 C.2     1  UNL1        0.3077
      9 O          57.5215   92.2538    3.8090 O.2     1  UNL1       -0.2522
     10 N          59.2376   90.9368    5.2480 N.am    1  UNL1       -0.2632
     11 C          58.4177   90.2565    6.3039 C.3     1  UNL1        0.1010
     12 C          59.6631   89.6516    6.8811 C.3     1  UNL1        0.0636
     13 C          60.4829   90.3319    5.8252 C.3     1  UNL1        0.1010
     14 H          60.9797   92.0783    3.4093 H       1  UNL1        0.1564
     15 C          59.9640   88.7428    8.0359 C.ar    1  UNL1        0.0012
     16 C          59.9901   87.2567    7.8338 C.ar    1  UNL1        0.0948
     17 N          60.2910   86.3479    8.9887 N.ar    1  UNL1       -0.2414
     18 C          60.5658   86.9252   10.3456 C.ar    1  UNL1        0.1129
     19 C          60.5397   88.4113   10.5476 C.ar    1  UNL1        0.0607
     20 N          60.8145   88.9887   11.9045 N.pl3   1  UNL1       -0.3558
     21 C          60.2388   89.3201    9.3928 C.ar    1  UNL1        0.0130
     22 H          61.0120   88.3922   12.6625 H       1  UNL1        0.1424
     23 H          60.7974   89.9640   12.0372 H       1  UNL1        0.1424
     24 C          59.9277   96.8511   -1.9677 C.3     1  UNL1        0.0264
     25 C          58.8473   95.9814   -1.3966 C.3     1  UNL1        0.0985
     26 N          57.4661   96.0203   -1.9802 N.am    1  UNL1       -0.2699
     27 C          56.1885   96.1858   -1.2118 C.3     1  UNL1        0.1208
     28 C          55.0527   96.1684   -2.1914 C.ar    1  UNL1        0.0021
     29 C          53.5688   96.2902   -2.0099 C.ar    1  UNL1       -0.0025
     30 C          52.6604   96.2359   -3.2023 C.ar    1  UNL1       -0.0003
     31 C          53.2360   96.0597   -4.5762 C.ar    1  UNL1        0.0001
     32 C          54.7200   95.9379   -4.7577 C.ar    1  UNL1        0.0043
     33 C          55.6283   95.9922   -3.5653 C.ar    1  UNL1        0.0512
     34 C          57.1198   95.9007   -3.4348 C.2     1  UNL1        0.2492
     35 O          58.0941   95.7211   -4.5611 O.2     1  UNL1       -0.2699
@<TRIPOS>BOND
     1    25    24    1
     2    25     1    1
     3     1     2   ar
     4     2     3   ar
     5     3     4   ar
     6     4     7    1
     7     7     8   am
     8     8     9    2
     9     8    10   am
    10    10    11    1
    11    11    12    1
    12    12    15    1
    13    15    16   ar
    14    16    17   ar
    15    17    18   ar
    16    18    19   ar
    17    19    20    1
    18    19    21   ar
    19    12    13    1
    20     4     5   ar
    21     5     6   ar
    22    25    26    1
    23    26    27    1
    24    27    28    1
    25    28    29   ar
    26    29    30   ar
    27    30    31   ar
    28    31    32   ar
    29    32    33   ar
    30    33    34    1
    31    34    35    2
    32     6     1   ar
    33    34    26   am
    34    13    10    1
    35    33    28   ar
    36    21    15   ar
    37     7    14    1
    38    20    22    1
    39    20    23    1
@<TRIPOS>MOLECULE
*****
 35 39 0 0 0
SMALL
GASTEIGER

@<TRIPOS>ATOM
      1 C          59.1356   94.8187   -0.2215 C.ar    1  UNL1       -0.0042
      2 C          58.7346   93.3733   -0.2186 C.ar    1  UNL1       -0.0014
      3 C          59.0456   92.5110    0.9687 C.ar    1  UNL1        0.0144
      4 C          59.7576   93.0941    2.1532 C.ar    1  UNL1        0.0516
      5 C          60.1587   94.5395    2.1504 C.ar    1  UNL1        0.0144
      6 C          59.8477   95.4018    0.9630 C.ar    1  UNL1       -0.0014
      7 N          60.0686   92.2318    3.3406 N.am    1  UNL1       -0.2681
      8 C          58.9569   91.7221    4.2091 C.2     1  UNL1        0.3077
      9 O          57.5342   92.0748    3.8903 O.2     1  UNL1       -0.2522
     10 N          59.2679   90.8598    5.3964 N.am    1  UNL1       -0.2632
     11 C          58.4532   90.1860    6.4604 C.3     1  UNL1        0.1010
     12 C          59.7078   89.6404    7.0755 C.3     1  UNL1        0.0636
     13 C          60.5225   90.3142    6.0115 C.3     1  UNL1        0.1010
     14 H          61.0023   92.0003    3.5498 H       1  UNL1        0.1564
     15 C          60.0188   88.7780    8.2628 C.ar    1  UNL1        0.0012
     16 C          60.0719   87.2865    8.1132 C.ar    1  UNL1        0.0948
     17 N          60.3828   86.4241    9.3005 N.ar    1  UNL1       -0.2414
     18 C          60.6407   87.0534   10.6375 C.ar    1  UNL1        0.1129
     19 C          60.5876   88.5450   10.7871 C.ar    1  UNL1        0.0607
     20 N          60.8455   89.1743   12.1241 N.pl3   1  UNL1       -0.3558
     21 C          60.2767   89.4073    9.5998 C.ar    1  UNL1        0.0130
     22 H          61.0496   88.6084   12.9034 H       1  UNL1        0.1424
     23 H          60.8107   90.1533   12.2223 H       1  UNL1        0.1424
     24 C          57.9023   96.8547   -1.2622 C.3     1  UNL1        0.0264
     25 C          58.8247   95.6810   -1.4088 C.3     1  UNL1        0.0985
     26 N          59.4360   95.3695   -2.7426 N.am    1  UNL1       -0.2699
     27 C          60.8891   95.1070   -3.0068 C.3     1  UNL1        0.1208
     28 C          61.0528   94.8411   -4.4740 C.ar    1  UNL1        0.0021
     29 C          62.2582   94.5223   -5.3078 C.ar    1  UNL1       -0.0025
     30 C          62.1117   94.3016   -6.7842 C.ar    1  UNL1       -0.0003
     31 C          60.7599   94.3998   -7.4268 C.ar    1  UNL1        0.0001
     32 C          59.5545   94.7186   -6.5929 C.ar    1  UNL1        0.0043
     33 C          59.7010   94.9393   -5.1165 C.ar    1  UNL1        0.0512
     34 C          58.7018   95.2658   -4.0465 C.2     1  UNL1        0.2492
     35 O          57.2272   95.4554   -4.2454 O.2     1  UNL1       -0.2699
@<TRIPOS>BOND
     1    25    24    1
     2    25     1    1
     3     1     2   ar
     4     2     3   ar
     5     3     4   ar
     6     4     7    1
     7     7     8   am
     8     8     9    2
     9     8    10   am
    10    10    11    1
    11    11    12    1
    12    12    15    1
    13    15    16   ar
    14    16    17   ar
    15    17    18   ar
    16    18    19   ar
    17    19    20    1
    18    19    21   ar
    19    12    13    1
    20     4     5   ar
    21     5     6   ar
    22    25    26    1
    23    26    27    1
    24    27    28    1
    25    28    29   ar
    26    29    30   ar
    27    30    31   ar
    28    31    32   ar
    29    32    33   ar
    30    33    34    1
    31    34    35    2
    32     6     1   ar
    33    34    26   am
    34    13    10    1
    35    33    28   ar
    36    21    15   ar
    37     7    14    1
    38    20    22    1
    39    20    23    1
@<TRIPOS>MOLECULE
*****
 35 39 0 0 0
SMALL
GASTEIGER

@<TRIPOS>ATOM
      1 C          73.1817   79.6614   11.6400 C.ar    1  UNL1       -0.0042
      2 C          72.6886   79.6007   13.0554 C.ar    1  UNL1       -0.0014
      3 C          72.6252   78.2843   13.7717 C.ar    1  UNL1        0.0144
      4 C          73.0548   77.0286   13.0726 C.ar    1  UNL1        0.0516
      5 C          73.5478   77.0893   11.6573 C.ar    1  UNL1        0.0144
      6 C          73.6113   78.4058   10.9409 C.ar    1  UNL1       -0.0014
      7 N          72.9914   75.7122   13.7889 N.am    1  UNL1       -0.2681
      8 C          71.6824   75.2117   14.3237 C.2     1  UNL1        0.3077
      9 O          70.4368   76.0275   14.1422 O.2     1  UNL1       -0.2522
     10 N          71.6190   73.8953   15.0400 N.am    1  UNL1       -0.2632
     11 C          70.5313   73.0932   15.6907 C.3     1  UNL1        0.1010
     12 C          71.5294   72.0336   16.0530 C.3     1  UNL1        0.0636
     13 C          72.6170   72.8357   15.4023 C.3     1  UNL1        0.1010
     14 H          73.8089   75.1767   13.9081 H       1  UNL1        0.1564
     15 C          71.4659   70.7172   16.7693 C.ar    1  UNL1        0.0012
     16 C          70.4576   70.5042   17.8592 C.ar    1  UNL1        0.0948
     17 N          70.3942   69.1878   18.5755 N.ar    1  UNL1       -0.2414
     18 C          71.3391   68.0844   18.2019 C.ar    1  UNL1        0.1129
     19 C          72.3475   68.2974   17.1120 C.ar    1  UNL1        0.0607
     20 N          73.2924   67.1940   16.7384 N.pl3   1  UNL1       -0.3558
     21 C          72.4109   69.6138   16.3957 C.ar    1  UNL1        0.0130
     22 H          73.2508   66.3300   17.2085 H       1  UNL1        0.1424
     23 H          73.9542   67.3338   16.0231 H       1  UNL1        0.1424
     24 C          73.4613   82.2437   11.6989 C.3     1  UNL1        0.0264
     25 C          73.2451   80.9778   10.9238 C.3     1  UNL1        0.0985
     26 N          73.0923   81.0283    9.4324 N.am    1  UNL1       -0.2699
     27 C          73.6301   80.0242    8.4565 C.3     1  UNL1        0.1208
     28 C          73.2451   80.4672    7.0760 C.ar    1  UNL1        0.0021
     29 C          73.5007   79.8720    5.7232 C.ar    1  UNL1       -0.0025
     30 C          72.9804   80.5547    4.4930 C.ar    1  UNL1       -0.0003
     31 C          72.2046   81.8326    4.6158 C.ar    1  UNL1        0.0001
     32 C          71.9490   82.4278    5.9687 C.ar    1  UNL1        0.0043
     33 C          72.4692   81.7450    7.1988 C.ar    1  UNL1        0.0512
     34 C          72.3748   82.0919    8.6551 C.2     1  UNL1        0.2492
     35 O          71.6842   83.2916    9.2327 O.2     1  UNL1       -0.2699
@<TRIPOS>BOND
     1    25    24    1
     2    25     1    1
     3     1     2   ar
     4     2     3   ar
     5     3     4   ar
     6     4     7    1
     7     7     8   am
     8     8     9    2
     9     8    10   am
    10    10    11    1
    11    11    12    1
    12    12    15    1
    13    15    16   ar
    14    16    17   ar
    15    17    18   ar
    16    18    19   ar
    17    19    20    1
    18    19    21   ar
    19    12    13    1
    20     4     5   ar
    21     5     6   ar
    22    25    26    1
    23    26    27    1
    24    27    28    1
    25    28    29   ar
    26    29    30   ar
    27    30    31   ar
    28    31    32   ar
    29    32    33   ar
    30    33    34    1
    31    34    35    2
    32     6     1   ar
    33    34    26   am
    34    13    10    1
    35    33    28   ar
    36    21    15   ar
    37     7    14    1
    38    20    22    1
    39    20    23    1
@<TRIPOS>MOLECULE
*****
 35 39 0 0 0
SMALL
GASTEIGER

@<TRIPOS>ATOM
      1 C          60.4947   94.8752   -0.7162 C.ar    1  UNL1       -0.0042
      2 C          60.0340   93.4482   -0.7570 C.ar    1  UNL1       -0.0014
      3 C          60.1308   92.5935    0.4719 C.ar    1  UNL1        0.0144
      4 C          60.6882   93.1656    1.7414 C.ar    1  UNL1        0.0516
      5 C          61.1489   94.5925    1.7822 C.ar    1  UNL1        0.0144
      6 C          61.0521   95.4473    0.5534 C.ar    1  UNL1       -0.0014
      7 N          60.7850   92.3108    2.9703 N.am    1  UNL1       -0.2681
      8 C          59.5445   91.9492    3.7320 C.2     1  UNL1        0.3077
      9 O          58.2071   92.4424    3.2649 O.2     1  UNL1       -0.2522
     10 N          59.6413   91.0945    4.9608 N.am    1  UNL1       -0.2632
     11 C          58.6573   90.5438    5.9500 C.3     1  UNL1        0.1010
     12 C          59.7783   89.8856    6.6986 C.3     1  UNL1        0.0636
     13 C          60.7622   90.4363    5.7094 C.3     1  UNL1        0.1010
     14 H          61.6628   91.9871    3.2769 H       1  UNL1        0.1564
     15 C          59.8750   89.0308    7.9274 C.ar    1  UNL1        0.0012
     16 C          59.6299   87.5539    7.8349 C.ar    1  UNL1        0.0948
     17 N          59.7267   86.6991    9.0637 N.ar    1  UNL1       -0.2414
     18 C          60.0686   87.3213   10.3851 C.ar    1  UNL1        0.1129
     19 C          60.3138   88.7982   10.4776 C.ar    1  UNL1        0.0607
     20 N          60.6557   89.4204   11.7989 N.pl3   1  UNL1       -0.3558
     21 C          60.2170   89.6530    9.2488 C.ar    1  UNL1        0.0130
     22 H          60.7193   88.8594   12.6055 H       1  UNL1        0.1424
     23 H          60.8166   90.3898   11.8597 H       1  UNL1        0.1424
     24 C          59.4085   96.8560   -1.9992 C.3     1  UNL1        0.0264
     25 C          60.3979   95.7299   -1.9450 C.3     1  UNL1        0.0985
     26 N          61.2904   95.4585   -3.1196 N.am    1  UNL1       -0.2699
     27 C          60.8537   95.3376   -4.5495 C.3     1  UNL1        0.1208
     28 C          62.0698   95.0648   -5.3842 C.ar    1  UNL1        0.0021
     29 C          62.2486   94.8537   -6.8584 C.ar    1  UNL1       -0.0025
     30 C          63.6157   94.5948   -7.4186 C.ar    1  UNL1       -0.0003
     31 C          64.8041   94.5470   -6.5045 C.ar    1  UNL1        0.0001
     32 C          64.6253   94.7581   -5.0303 C.ar    1  UNL1        0.0043
     33 C          63.2581   95.0170   -4.4701 C.ar    1  UNL1        0.0512
     34 C          62.7765   95.2604   -3.0706 C.2     1  UNL1        0.2492
     35 O          63.6309   95.2988   -1.8383 O.2     1  UNL1       -0.2699
@<TRIPOS>BOND
     1    25    24    1
     2    25     1    1
     3     1     2   ar
     4     2     3   ar
     5     3     4   ar
     6     4     7    1
     7     7     8   am
     8     8     9    2
     9     8    10   am
    10    10    11    1
    11    11    12    1
    12    12    15    1
    13    15    16   ar
    14    16    17   ar
    15    17    18   ar
    16    18    19   ar
    17    19    20    1
    18    19    21   ar
    19    12    13    1
    20     4     5   ar
    21     5     6   ar
    22    25    26    1
    23    26    27    1
    24    27    28    1
    25    28    29   ar
    26    29    30   ar
    27    30    31   ar
    28    31    32   ar
    29    32    33   ar
    30    33    34    1
    31    34    35    2
    32     6     1   ar
    33    34    26   am
    34    13    10    1
    35    33    28   ar
    36    21    15   ar
    37     7    14    1
    38    20    22    1
    39    20    23    1
@<TRIPOS>MOLECULE
*****
 35 39 0 0 0
SMALL
GASTEIGER

@<TRIPOS>ATOM
      1 C          59.3091   90.6585    5.4899 C.ar    1  UNL1       -0.0042
      2 C          60.7583   90.4750    5.1485 C.ar    1  UNL1       -0.0014
      3 C          61.3770   91.2820    4.0458 C.ar    1  UNL1        0.0144
      4 C          60.5467   92.2724    3.2844 C.ar    1  UNL1        0.0516
      5 C          59.0976   92.4558    3.6258 C.ar    1  UNL1        0.0144
      6 C          58.4788   91.6489    4.7285 C.ar    1  UNL1       -0.0014
      7 N          61.1655   93.0793    2.1817 N.am    1  UNL1       -0.2681
      8 C          61.3471   92.4748    0.8210 C.2     1  UNL1        0.3077
      9 O          60.9099   91.0633    0.5630 O.2     1  UNL1       -0.2522
     10 N          61.9658   93.2817   -0.2817 N.am    1  UNL1       -0.2632
     11 C          62.2990   93.0293   -1.7222 C.3     1  UNL1        0.1010
     12 C          62.8409   94.4230   -1.8411 C.3     1  UNL1        0.0636
     13 C          62.5077   94.6754   -0.4006 C.3     1  UNL1        0.1010
     14 H          61.4524   94.0057    2.3510 H       1  UNL1        0.1564
     15 C          63.4597   95.2299   -2.9438 C.ar    1  UNL1        0.0012
     16 C          64.8980   95.6458   -2.8526 C.ar    1  UNL1        0.0948
     17 N          65.5168   96.4528   -3.9554 N.ar    1  UNL1       -0.2414
     18 C          64.6973   96.8438   -5.1493 C.ar    1  UNL1        0.1129
     19 C          63.2589   96.4278   -5.2405 C.ar    1  UNL1        0.0607
     20 N          62.4394   96.8188   -6.4344 N.pl3   1  UNL1       -0.3558
     21 C          62.6402   95.6209   -4.1378 C.ar    1  UNL1        0.0130
     22 H          62.8455   97.3485   -7.1582 H       1  UNL1        0.1424
     23 H          61.4954   96.5459   -6.4943 H       1  UNL1        0.1424
     24 C          57.2008   89.6878    6.6571 C.3     1  UNL1        0.0264
     25 C          58.6904   89.8515    6.5926 C.3     1  UNL1        0.0985
     26 N          59.5613   89.2083    7.6308 N.am    1  UNL1       -0.2699
     27 C          60.4159   89.9265    8.6327 C.3     1  UNL1        0.1208
     28 C          61.1133   88.8961    9.4705 C.ar    1  UNL1        0.0021
     29 C          62.0793   89.0166   10.6117 C.ar    1  UNL1       -0.0025
     30 C          62.6217   87.7821   11.2687 C.ar    1  UNL1       -0.0003
     31 C          62.1980   86.4270   10.7845 C.ar    1  UNL1        0.0001
     32 C          61.2320   86.3065    9.6434 C.ar    1  UNL1        0.0043
     33 C          60.6896   87.5410    8.9864 C.ar    1  UNL1        0.0512
     34 C          59.7305   87.7340    7.8494 C.2     1  UNL1        0.2492
     35 O          59.0585   86.6441    7.0682 O.2     1  UNL1       -0.2699
@<TRIPOS>BOND
     1    25    24    1
     2    25     1    1
     3     1     2   ar
     4     2     3   ar
     5     3     4   ar
     6     4     7    1
     7     7     8   am
     8     8     9    2
     9     8    10   am
    10    10    11    1
    11    11    12    1
    12    12    15    1
    13    15    16   ar
    14    16    17   ar
    15    17    18   ar
    16    18    19   ar
    17    19    20    1
    18    19    21   ar
    19    12    13    1
    20     4     5   ar
    21     5     6   ar
    22    25    26    1
    23    26    27    1
    24    27    28    1
    25    28    29   ar
    26    29    30   ar
    27    30    31   ar
    28    31    32   ar
    29    32    33   ar
    30    33    34    1
    31    34    35    2
    32     6     1   ar
    33    34    26   am
    34    13    10    1
    35    33    28   ar
    36    21    15   ar
    37     7    14    1
    38    20    22    1
    39    20    23    1
@<TRIPOS>MOLECULE
*****
 35 39 0 0 0
SMALL
GASTEIGER

@<TRIPOS>ATOM
      1 C          60.0346   88.4309    9.3951 C.ar    1  UNL1       -0.0042
      2 C          60.6636   89.7728    9.1632 C.ar    1  UNL1       -0.0014
      3 C          60.4073   90.5099    7.8822 C.ar    1  UNL1        0.0144
      4 C          59.5221   89.9051    6.8330 C.ar    1  UNL1        0.0516
      5 C          58.8932   88.5632    7.0649 C.ar    1  UNL1        0.0144
      6 C          59.1495   87.8261    8.3460 C.ar    1  UNL1       -0.0014
      7 N          59.2659   90.6422    5.5520 N.am    1  UNL1       -0.2681
      8 C          60.4125   91.2216    4.7778 C.2     1  UNL1        0.3077
      9 O          61.8155   91.0639    5.2846 O.2     1  UNL1       -0.2522
     10 N          60.1563   91.9587    3.4968 N.am    1  UNL1       -0.2632
     11 C          61.0159   92.6521    2.4818 C.3     1  UNL1        0.1010
     12 C          59.7938   93.0011    1.6852 C.3     1  UNL1        0.0636
     13 C          58.9342   92.3078    2.7001 C.3     1  UNL1        0.1010
     14 H          58.3451   90.7457    5.2193 H       1  UNL1        0.1564
     15 C          59.5376   93.7382    0.4041 C.ar    1  UNL1        0.0012
     16 C          59.5479   95.2381    0.3869 C.ar    1  UNL1        0.0948
     17 N          59.2916   95.9752   -0.8942 N.ar    1  UNL1       -0.2414
     18 C          59.0251   95.2124   -2.1580 C.ar    1  UNL1        0.1129
     19 C          59.0148   93.7125   -2.1407 C.ar    1  UNL1        0.0607
     20 N          58.7482   92.9497   -3.4045 N.pl3   1  UNL1       -0.3558
     21 C          59.2710   92.9755   -0.8597 C.ar    1  UNL1        0.0130
     22 H          58.5801   93.4335   -4.2452 H       1  UNL1        0.1424
     23 H          58.7415   91.9653   -3.3931 H       1  UNL1        0.1424
     24 C          59.5715   88.0958   11.9294 C.3     1  UNL1        0.0264
     25 C          60.2909   87.6938   10.6761 C.3     1  UNL1        0.0985
     26 N          61.2665   86.5548   10.7038 N.am    1  UNL1       -0.2699
     27 C          61.7832   85.8661   11.9321 C.3     1  UNL1        0.1208
     28 C          62.7328   84.7901   11.4955 C.ar    1  UNL1        0.0021
     29 C          63.5426   83.7918   12.2685 C.ar    1  UNL1       -0.0025
     30 C          64.4225   82.8173   11.5434 C.ar    1  UNL1       -0.0003
     31 C          64.4927   82.8410   10.0452 C.ar    1  UNL1        0.0001
     32 C          63.6829   83.8392    9.2722 C.ar    1  UNL1        0.0043
     33 C          62.8029   84.8138    9.9973 C.ar    1  UNL1        0.0512
     34 C          61.8967   85.9044    9.5080 C.2     1  UNL1        0.2492
     35 O          61.6620   86.2789    8.0746 O.2     1  UNL1       -0.2699
@<TRIPOS>BOND
     1    25    24    1
     2    25     1    1
     3     1     2   ar
     4     2     3   ar
     5     3     4   ar
     6     4     7    1
     7     7     8   am
     8     8     9    2
     9     8    10   am
    10    10    11    1
    11    11    12    1
    12    12    15    1
    13    15    16   ar
    14    16    17   ar
    15    17    18   ar
    16    18    19   ar
    17    19    20    1
    18    19    21   ar
    19    12    13    1
    20     4     5   ar
    21     5     6   ar
    22    25    26    1
    23    26    27    1
    24    27    28    1
    25    28    29   ar
    26    29    30   ar
    27    30    31   ar
    28    31    32   ar
    29    32    33   ar
    30    33    34    1
    31    34    35    2
    32     6     1   ar
    33    34    26   am
    34    13    10    1
    35    33    28   ar
    36    21    15   ar
    37     7    14    1
    38    20    22    1
    39    20    23    1
@<TRIPOS>MOLECULE
*****
 35 39 0 0 0
SMALL
GASTEIGER

@<TRIPOS>ATOM
      1 C          65.4199   91.8067   13.4698 C.ar    1  UNL1       -0.0042
      2 C          64.5634   91.4100   12.3039 C.ar    1  UNL1       -0.0014
      3 C          63.9136   90.0584   12.2762 C.ar    1  UNL1        0.0144
      4 C          64.1201   89.1034   13.4143 C.ar    1  UNL1        0.0516
      5 C          64.9765   89.5000   14.5801 C.ar    1  UNL1        0.0144
      6 C          65.6264   90.8517   14.6079 C.ar    1  UNL1       -0.0014
      7 N          63.4702   87.7518   13.3865 N.am    1  UNL1       -0.2681
      8 C          64.1738   86.5689   13.9827 C.2     1  UNL1        0.3077
      9 O          65.5274   86.7375   14.6067 O.2     1  UNL1       -0.2522
     10 N          63.5239   85.2173   13.9549 N.am    1  UNL1       -0.2632
     11 C          63.9042   83.8475   14.4334 C.3     1  UNL1        0.1010
     12 C          62.6047   83.3059   13.9156 C.3     1  UNL1        0.0636
     13 C          62.2245   84.6756   13.4371 C.3     1  UNL1        0.1010
     14 H          62.5818   87.6411   12.9770 H       1  UNL1        0.1564
     15 C          61.9548   81.9542   13.8878 C.ar    1  UNL1        0.0012
     16 C          60.5950   81.7633   14.4914 C.ar    1  UNL1        0.0948
     17 N          59.9451   80.4117   14.4637 N.ar    1  UNL1       -0.2414
     18 C          60.6550   79.2509   13.8323 C.ar    1  UNL1        0.1129
     19 C          62.0149   79.4419   13.2287 C.ar    1  UNL1        0.0607
     20 N          62.7249   78.2811   12.5973 N.pl3   1  UNL1       -0.3558
     21 C          62.6648   80.7935   13.2565 C.ar    1  UNL1        0.0130
     22 H          62.2984   77.3940   12.5790 H       1  UNL1        0.1424
     23 H          63.6174   78.4064   12.2011 H       1  UNL1        0.1424
     24 C          66.3831   93.8130   14.8102 C.3     1  UNL1        0.0264
     25 C          66.0698   93.1583   13.4975 C.3     1  UNL1        0.0985
     26 N          66.4062   93.8552   12.2126 N.am    1  UNL1       -0.2699
     27 C          66.9246   93.2029   10.9653 C.3     1  UNL1        0.1208
     28 C          67.1222   94.2713    9.9311 C.ar    1  UNL1        0.0021
     29 C          67.6117   94.2185    8.5143 C.ar    1  UNL1       -0.0025
     30 C          67.7050   95.4784    7.7056 C.ar    1  UNL1       -0.0003
     31 C          67.3087   96.7911    8.3138 C.ar    1  UNL1        0.0001
     32 C          66.8192   96.8439    9.7306 C.ar    1  UNL1        0.0043
     33 C          66.7259   95.5840   10.5393 C.ar    1  UNL1        0.0512
     34 C          66.2834   95.3268   11.9493 C.2     1  UNL1        0.2492
     35 O          65.8026   96.3599   12.9247 O.2     1  UNL1       -0.2699
@<TRIPOS>BOND
     1    25    24    1
     2    25     1    1
     3     1     2   ar
     4     2     3   ar
     5     3     4   ar
     6     4     7    1
     7     7     8   am
     8     8     9    2
     9     8    10   am
    10    10    11    1
    11    11    12    1
    12    12    15    1
    13    15    16   ar
    14    16    17   ar
    15    17    18   ar
    16    18    19   ar
    17    19    20    1
    18    19    21   ar
    19    12    13    1
    20     4     5   ar
    21     5     6   ar
    22    25    26    1
    23    26    27    1
    24    27    28    1
    25    28    29   ar
    26    29    30   ar
    27    30    31   ar
    28    31    32   ar
    29    32    33   ar
    30    33    34    1
    31    34    35    2
    32     6     1   ar
    33    34    26   am
    34    13    10    1
    35    33    28   ar
    36    21    15   ar
    37     7    14    1
    38    20    22    1
    39    20    23    1
