@<TRIPOS>MOLECULE
*****
 33 36 0 0 0
SMALL
GASTEIGER

@<TRIPOS>ATOM
      1 C          64.0789   85.6406   15.1106 C.2     1  UNL1        0.2316
      2 O          63.8611   85.7269   16.5921 O.2     1  UNL1       -0.2744
      3 N          64.1667   86.8939   14.2911 N.am    1  UNL1       -0.2690
      4 H          64.3096   86.8372   13.3187 H       1  UNL1        0.1563
      5 C          64.0367   88.2335   14.9533 C.ar    1  UNL1        0.1374
      6 C          64.8203   89.4040   14.4378 C.ar    1  UNL1        0.0537
      7 C          64.6904   90.7438   15.1000 C.ar    1  UNL1        0.0874
      8 N          63.7769   90.9127   16.2776 N.ar    1  UNL1       -0.2238
      9 C          62.9933   89.7421   16.7932 C.ar    1  UNL1        0.2000
     10 N          63.1232   88.4025   16.1310 N.ar    1  UNL1       -0.2088
     11 C          65.4739   91.9143   14.5845 C.ar    1  UNL1        0.0399
     12 C          66.3638   92.8067   15.3980 C.ar    1  UNL1        0.1021
     13 N          66.9450   93.8419   14.4812 N.ar    1  UNL1       -0.2269
     14 C          66.4144   93.5893   13.1011 C.ar    1  UNL1        0.1406
     15 N          66.6416   94.2902   11.7946 N.ar    1  UNL1       -0.3374
     16 C          65.9596   93.7998   10.5519 C.ar    1  UNL1        0.0735
     17 C          65.0504   92.6084   10.6157 C.ar    1  UNL1        0.0186
     18 C          64.8232   91.9076   11.9223 C.ar    1  UNL1        0.0046
     19 C          65.5052   92.3980   13.1650 C.ar    1  UNL1        0.0369
     20 H          67.2383   95.0721   11.7527 H       1  UNL1        0.1674
     21 C          64.2088   84.3008   14.4484 C.3     1  UNL1        0.1117
     22 C          62.5006   84.8294   10.9055 C.ar    1  UNL1        0.0641
     23 C          63.2765   83.8560   10.0686 C.ar    1  UNL1        0.0158
     24 C          64.3632   83.0308   10.6916 C.ar    1  UNL1        0.0010
     25 C          64.6739   83.1791   12.1515 C.ar    1  UNL1       -0.0037
     26 C          63.8980   84.1525   12.9884 C.ar    1  UNL1       -0.0118
     27 C          62.8114   84.9777   12.3654 C.ar    1  UNL1        0.0121
     28 N          61.4138   85.6546   10.2824 N.pl3   1  UNL1       -0.2187
     29 H          60.6130   85.2165    9.9138 H       1  UNL1        0.1734
     30 C          61.6809   88.6402   10.1595 C.3     1  UNL1        0.1996
     31 S          61.5473   87.1474   10.2209 S.O2    1  UNL1        0.0558
     32 O          60.6064   87.2794   11.3816 O.2     1  UNL1       -0.1544
     33 O          62.4884   87.0154    9.0603 O.2     1  UNL1       -0.1544
@<TRIPOS>BOND
     1    30    31    1
     2    31    32    2
     3    31    33    2
     4    31    28    1
     5    28    22    1
     6    22    23   ar
     7    23    24   ar
     8    24    25   ar
     9    25    26   ar
    10    26    21    1
    11    21     1    1
    12     1     2    2
    13     1     3   am
    14     3     5    1
    15     5     6   ar
    16     6     7   ar
    17     7    11    1
    18    11    12   ar
    19    12    13   ar
    20    13    14   ar
    21    14    15   ar
    22    15    16   ar
    23    16    17   ar
    24    17    18   ar
    25    18    19   ar
    26     7     8   ar
    27     8     9   ar
    28     9    10   ar
    29    26    27   ar
    30    27    22   ar
    31    10     5   ar
    32    19    11   ar
    33    19    14    1
    34    28    29    1
    35     3     4    1
    36    15    20    1
@<TRIPOS>MOLECULE
*****
 33 36 0 0 0
SMALL
GASTEIGER

@<TRIPOS>ATOM
      1 C          62.5788   85.3612   10.1716 C.2     1  UNL1        0.2316
      2 O          62.7457   86.1587    8.9123 O.2     1  UNL1       -0.2744
      3 N          62.0536   86.0201   11.4126 N.am    1  UNL1       -0.2690
      4 H          61.9441   85.4967   12.2392 H       1  UNL1        0.1563
      5 C          61.6954   87.4766   11.3941 C.ar    1  UNL1        0.1374
      6 C          62.7759   88.5154   11.4524 C.ar    1  UNL1        0.0537
      7 C          62.4178   89.9720   11.4339 C.ar    1  UNL1        0.0874
      8 N          60.9792   90.3896   11.3572 N.ar    1  UNL1       -0.2238
      9 C          59.8987   89.3507   11.2989 C.ar    1  UNL1        0.2000
     10 N          60.2568   87.8942   11.3174 N.ar    1  UNL1       -0.2088
     11 C          63.4983   91.0108   11.4922 C.ar    1  UNL1        0.0399
     12 C          63.9621   91.8655   10.3502 C.ar    1  UNL1        0.1021
     13 N          65.0551   92.7602   10.8550 N.ar    1  UNL1       -0.2269
     14 C          65.2668   92.4584   12.3090 C.ar    1  UNL1        0.1406
     15 N          66.2114   93.0285   13.3252 N.ar    1  UNL1       -0.3374
     16 C          66.1938   92.5173   14.7353 C.ar    1  UNL1        0.0735
     17 C          65.2316   91.4361   15.1291 C.ar    1  UNL1        0.0186
     18 C          64.2870   90.8660   14.1129 C.ar    1  UNL1        0.0046
     19 C          64.3046   91.3772   12.7028 C.ar    1  UNL1        0.0369
     20 H          66.8429   93.7381   13.0667 H       1  UNL1        0.1674
     21 C          62.9371   83.9046   10.1900 C.3     1  UNL1        0.1117
     22 C          63.9221   83.2553   13.9792 C.ar    1  UNL1        0.0641
     23 C          63.5920   81.7982   14.1122 C.ar    1  UNL1        0.0158
     24 C          63.0436   81.0431   12.9379 C.ar    1  UNL1        0.0010
     25 C          62.8253   81.7453   11.6305 C.ar    1  UNL1       -0.0037
     26 C          63.1554   83.2025   11.4974 C.ar    1  UNL1       -0.0118
     27 C          63.7038   83.9575   12.6718 C.ar    1  UNL1        0.0121
     28 N          64.4706   84.0104   15.1536 N.pl3   1  UNL1       -0.2187
     29 H          64.9191   83.5262   15.8842 H       1  UNL1        0.1734
     30 C          64.2008   86.9957   15.2762 C.3     1  UNL1        0.1996
     31 S          64.3357   85.5030   15.2149 S.O2    1  UNL1        0.0558
     32 O          65.7647   85.6499   14.7832 O.2     1  UNL1       -0.1544
     33 O          62.9067   85.3561   15.6467 O.2     1  UNL1       -0.1544
@<TRIPOS>BOND
     1    30    31    1
     2    31    32    2
     3    31    33    2
     4    31    28    1
     5    28    22    1
     6    22    23   ar
     7    23    24   ar
     8    24    25   ar
     9    25    26   ar
    10    26    21    1
    11    21     1    1
    12     1     2    2
    13     1     3   am
    14     3     5    1
    15     5     6   ar
    16     6     7   ar
    17     7    11    1
    18    11    12   ar
    19    12    13   ar
    20    13    14   ar
    21    14    15   ar
    22    15    16   ar
    23    16    17   ar
    24    17    18   ar
    25    18    19   ar
    26     7     8   ar
    27     8     9   ar
    28     9    10   ar
    29    26    27   ar
    30    27    22   ar
    31    10     5   ar
    32    19    11   ar
    33    19    14    1
    34    28    29    1
    35     3     4    1
    36    15    20    1
@<TRIPOS>MOLECULE
*****
 33 36 0 0 0
SMALL
GASTEIGER

@<TRIPOS>ATOM
      1 C          62.9076   85.0508   10.2672 C.2     1  UNL1        0.2316
      2 O          62.7947   85.8560    9.0067 O.2     1  UNL1       -0.2744
      3 N          62.6516   85.6979   11.5960 N.am    1  UNL1       -0.2690
      4 H          62.7257   85.1694   12.4234 H       1  UNL1        0.1563
      5 C          62.2827   87.1502   11.6643 C.ar    1  UNL1        0.1374
      6 C          63.2168   88.1318   12.3077 C.ar    1  UNL1        0.0537
      7 C          62.8479   89.5842   12.3760 C.ar    1  UNL1        0.0874
      8 N          61.5451   90.0549   11.8008 N.ar    1  UNL1       -0.2238
      9 C          60.6111   89.0733   11.1573 C.ar    1  UNL1        0.2000
     10 N          60.9799   87.6210   11.0890 N.ar    1  UNL1       -0.2088
     11 C          63.7820   90.5658   13.0195 C.ar    1  UNL1        0.0399
     12 C          64.1013   90.6501   14.4826 C.ar    1  UNL1        0.1021
     13 N          65.0774   91.7718   14.6801 N.ar    1  UNL1       -0.2269
     14 C          65.3613   92.3807   13.3390 C.ar    1  UNL1        0.1406
     15 N          66.2455   93.5176   12.9198 N.ar    1  UNL1       -0.3374
     16 C          66.3290   93.9091   11.4743 C.ar    1  UNL1        0.0735
     17 C          65.5284   93.1637   10.4479 C.ar    1  UNL1        0.0186
     18 C          64.6443   92.0269   10.8671 C.ar    1  UNL1        0.0046
     19 C          64.5607   91.6354   12.3126 C.ar    1  UNL1        0.0369
     20 H          66.7709   94.0068   13.5935 H       1  UNL1        0.1674
     21 C          63.2766   83.5984   10.1990 C.3     1  UNL1        0.1117
     22 C          62.6834   82.4128   13.9396 C.ar    1  UNL1        0.0641
     23 C          62.5725   80.9287   13.7523 C.ar    1  UNL1        0.0158
     24 C          62.6962   80.3344   12.3807 C.ar    1  UNL1        0.0010
     25 C          62.9309   81.2244   11.1962 C.ar    1  UNL1       -0.0037
     26 C          63.0419   82.7085   11.3834 C.ar    1  UNL1       -0.0118
     27 C          62.9181   83.3028   12.7551 C.ar    1  UNL1        0.0121
     28 N          62.5596   83.0071   15.3113 N.pl3   1  UNL1       -0.2187
     29 H          62.0809   82.5174   16.0186 H       1  UNL1        0.1734
     30 C          63.7709   85.6879   15.8996 C.3     1  UNL1        0.1996
     31 S          63.1653   84.3475   15.6054 S.O2    1  UNL1        0.0558
     32 O          61.7931   84.9436   15.7142 O.2     1  UNL1       -0.1544
     33 O          64.5374   83.7513   15.4967 O.2     1  UNL1       -0.1544
@<TRIPOS>BOND
     1    30    31    1
     2    31    32    2
     3    31    33    2
     4    31    28    1
     5    28    22    1
     6    22    23   ar
     7    23    24   ar
     8    24    25   ar
     9    25    26   ar
    10    26    21    1
    11    21     1    1
    12     1     2    2
    13     1     3   am
    14     3     5    1
    15     5     6   ar
    16     6     7   ar
    17     7    11    1
    18    11    12   ar
    19    12    13   ar
    20    13    14   ar
    21    14    15   ar
    22    15    16   ar
    23    16    17   ar
    24    17    18   ar
    25    18    19   ar
    26     7     8   ar
    27     8     9   ar
    28     9    10   ar
    29    26    27   ar
    30    27    22   ar
    31    10     5   ar
    32    19    11   ar
    33    19    14    1
    34    28    29    1
    35     3     4    1
    36    15    20    1
@<TRIPOS>MOLECULE
*****
 33 36 0 0 0
SMALL
GASTEIGER

@<TRIPOS>ATOM
      1 C          62.9409   89.6033   12.6674 C.2     1  UNL1        0.2316
      2 O          63.5586   88.3022   13.0866 O.2     1  UNL1       -0.2744
      3 N          61.9884   89.6426   11.5093 N.am    1  UNL1       -0.2690
      4 H          61.5830   90.4965   11.2341 H       1  UNL1        0.1563
      5 C          61.6537   88.3809   10.7704 C.ar    1  UNL1        0.1374
      6 C          62.4462   87.1323   11.0212 C.ar    1  UNL1        0.0537
      7 C          62.1116   85.8704   10.2823 C.ar    1  UNL1        0.0874
      8 N          60.9844   85.8574    9.2927 N.ar    1  UNL1       -0.2238
      9 C          60.1919   87.1060    9.0420 C.ar    1  UNL1        0.2000
     10 N          60.5266   88.3678    9.7808 N.ar    1  UNL1       -0.2088
     11 C          62.9041   84.6218   10.5330 C.ar    1  UNL1        0.0399
     12 C          63.7017   83.8641    9.5134 C.ar    1  UNL1        0.1021
     13 N          64.3287   82.6857   10.1977 N.ar    1  UNL1       -0.2269
     14 C          63.9185   82.7151   11.6402 C.ar    1  UNL1        0.1406
     15 N          64.2330   81.8069   12.7918 N.ar    1  UNL1       -0.3374
     16 C          63.6671   82.0953   14.1506 C.ar    1  UNL1        0.0735
     17 C          62.7866   83.2918   14.3579 C.ar    1  UNL1        0.0186
     18 C          62.4721   84.2001   13.2063 C.ar    1  UNL1        0.0046
     19 C          63.0381   83.9117   11.8475 C.ar    1  UNL1        0.0369
     20 H          64.8109   81.0215   12.6558 H       1  UNL1        0.1674
     21 C          63.2757   90.8650   13.4064 C.3     1  UNL1        0.1117
     22 C          66.6522   92.7111   12.4369 C.ar    1  UNL1        0.0641
     23 C          67.5345   92.3077   13.5809 C.ar    1  UNL1        0.0158
     24 C          66.9972   91.4234   14.6668 C.ar    1  UNL1        0.0010
     25 C          65.5776   90.9425   14.6086 C.ar    1  UNL1       -0.0037
     26 C          64.6953   91.3459   13.4646 C.ar    1  UNL1       -0.0118
     27 C          65.2326   92.2302   12.3787 C.ar    1  UNL1        0.0121
     28 N          67.1896   93.5955   11.3509 N.pl3   1  UNL1       -0.2187
     29 H          68.0794   93.4196   10.9680 H       1  UNL1        0.1734
     30 C          65.5530   95.9002   10.3459 C.3     1  UNL1        0.1996
     31 S          66.3713   94.7479   10.8484 S.O2    1  UNL1        0.0558
     32 O          66.5405   94.2547    9.4419 O.2     1  UNL1       -0.1544
     33 O          66.2023   95.2410   12.2549 O.2     1  UNL1       -0.1544
@<TRIPOS>BOND
     1    30    31    1
     2    31    32    2
     3    31    33    2
     4    31    28    1
     5    28    22    1
     6    22    23   ar
     7    23    24   ar
     8    24    25   ar
     9    25    26   ar
    10    26    21    1
    11    21     1    1
    12     1     2    2
    13     1     3   am
    14     3     5    1
    15     5     6   ar
    16     6     7   ar
    17     7    11    1
    18    11    12   ar
    19    12    13   ar
    20    13    14   ar
    21    14    15   ar
    22    15    16   ar
    23    16    17   ar
    24    17    18   ar
    25    18    19   ar
    26     7     8   ar
    27     8     9   ar
    28     9    10   ar
    29    26    27   ar
    30    27    22   ar
    31    10     5   ar
    32    19    11   ar
    33    19    14    1
    34    28    29    1
    35     3     4    1
    36    15    20    1
@<TRIPOS>MOLECULE
*****
 33 36 0 0 0
SMALL
GASTEIGER

@<TRIPOS>ATOM
      1 C          63.1373   84.4330   15.2221 C.2     1  UNL1        0.2316
      2 O          61.7211   84.8546   15.4802 O.2     1  UNL1       -0.2744
      3 N          64.2448   85.4423   15.2914 N.am    1  UNL1       -0.2690
      4 H          65.1743   85.1656   15.1221 H       1  UNL1        0.1563
      5 C          63.9360   86.8732   15.6188 C.ar    1  UNL1        0.1374
      6 C          64.3298   87.9624   14.6656 C.ar    1  UNL1        0.0537
      7 C          64.0210   89.3934   14.9929 C.ar    1  UNL1        0.0874
      8 N          63.3185   89.7350   16.2733 N.ar    1  UNL1       -0.2238
      9 C          62.9247   88.6458   17.2265 C.ar    1  UNL1        0.2000
     10 N          63.2335   87.2149   16.8993 N.ar    1  UNL1       -0.2088
     11 C          64.4147   90.4826   14.0397 C.ar    1  UNL1        0.0399
     12 C          65.3815   91.5942   14.3218 C.ar    1  UNL1        0.1021
     13 N          65.4751   92.4500   13.0935 N.ar    1  UNL1       -0.2269
     14 C          64.5662   91.8672   12.0521 C.ar    1  UNL1        0.1406
     15 N          64.2506   92.2867   10.6470 N.ar    1  UNL1       -0.3374
     16 C          63.2797   91.4903    9.8267 C.ar    1  UNL1        0.0735
     17 C          62.6244   90.2743   10.4115 C.ar    1  UNL1        0.0186
     18 C          62.9399   89.8548   11.8166 C.ar    1  UNL1        0.0046
     19 C          63.9108   90.6513   12.6369 C.ar    1  UNL1        0.0369
     20 H          64.6808   93.0848   10.2632 H       1  UNL1        0.1674
     21 C          63.4461   83.0020   14.8948 C.3     1  UNL1        0.1117
     22 C          63.5158   83.0016   10.9268 C.ar    1  UNL1        0.0641
     23 C          63.1995   81.5641   10.6379 C.ar    1  UNL1        0.0158
     24 C          62.9654   80.6058   11.7679 C.ar    1  UNL1        0.0010
     25 C          63.0476   81.0852   13.1869 C.ar    1  UNL1       -0.0037
     26 C          63.3639   82.5227   13.4758 C.ar    1  UNL1       -0.0118
     27 C          63.5980   83.4809   12.3458 C.ar    1  UNL1        0.0121
     28 N          63.7499   83.9599    9.7967 N.pl3   1  UNL1       -0.2187
     29 H          64.5712   83.8943    9.2579 H       1  UNL1        0.1734
     30 C          61.7153   86.0760    9.1786 C.3     1  UNL1        0.1996
     31 S          62.7326   85.0180    9.4876 S.O2    1  UNL1        0.0558
     32 O          63.1841   85.0343    8.0573 O.2     1  UNL1       -0.1544
     33 O          62.2811   85.0015   10.9180 O.2     1  UNL1       -0.1544
@<TRIPOS>BOND
     1    30    31    1
     2    31    32    2
     3    31    33    2
     4    31    28    1
     5    28    22    1
     6    22    23   ar
     7    23    24   ar
     8    24    25   ar
     9    25    26   ar
    10    26    21    1
    11    21     1    1
    12     1     2    2
    13     1     3   am
    14     3     5    1
    15     5     6   ar
    16     6     7   ar
    17     7    11    1
    18    11    12   ar
    19    12    13   ar
    20    13    14   ar
    21    14    15   ar
    22    15    16   ar
    23    16    17   ar
    24    17    18   ar
    25    18    19   ar
    26     7     8   ar
    27     8     9   ar
    28     9    10   ar
    29    26    27   ar
    30    27    22   ar
    31    10     5   ar
    32    19    11   ar
    33    19    14    1
    34    28    29    1
    35     3     4    1
    36    15    20    1
@<TRIPOS>MOLECULE
*****
 33 36 0 0 0
SMALL
GASTEIGER

@<TRIPOS>ATOM
      1 C          63.6718   90.0118   15.3568 C.2     1  UNL1        0.2316
      2 O          62.7382   89.1418   16.1451 O.2     1  UNL1       -0.2744
      3 N          64.1607   89.5617   14.0120 N.am    1  UNL1       -0.2690
      4 H          64.7734   90.1327   13.4946 H       1  UNL1        0.1563
      5 C          63.7159   88.2417   13.4556 C.ar    1  UNL1        0.1374
      6 C          62.8285   88.1980   12.2470 C.ar    1  UNL1        0.0537
      7 C          62.3836   86.8779   11.6905 C.ar    1  UNL1        0.0874
      8 N          62.8261   85.6017   12.3427 N.ar    1  UNL1       -0.2238
      9 C          63.7135   85.6454   13.5513 C.ar    1  UNL1        0.2000
     10 N          64.1583   86.9654   14.1077 N.ar    1  UNL1       -0.2088
     11 C          61.4963   86.8341   10.4819 C.ar    1  UNL1        0.0399
     12 C          60.1856   87.5463   10.3242 C.ar    1  UNL1        0.1021
     13 N          59.6431   87.2228    8.9637 N.ar    1  UNL1       -0.2269
     14 C          60.6185   86.3108    8.2805 C.ar    1  UNL1        0.1406
     15 N          60.6118   85.6680    6.9253 N.ar    1  UNL1       -0.3374
     16 C          61.7503   84.7849    6.5084 C.ar    1  UNL1        0.0735
     17 C          62.8957   84.5447    7.4468 C.ar    1  UNL1        0.0186
     18 C          62.9024   85.1875    8.8020 C.ar    1  UNL1        0.0046
     19 C          61.7638   86.0705    9.2189 C.ar    1  UNL1        0.0369
     20 H          59.8600   85.8257    6.3094 H       1  UNL1        0.1674
     21 C          64.1166   91.3319   15.9133 C.3     1  UNL1        0.1117
     22 C          67.0669   92.6381   13.6026 C.ar    1  UNL1        0.0641
     23 C          68.0515   93.1016   14.6349 C.ar    1  UNL1        0.0158
     24 C          67.7245   92.9753   16.0933 C.ar    1  UNL1        0.0010
     25 C          66.4129   92.3853   16.5195 C.ar    1  UNL1       -0.0037
     26 C          65.4282   91.9218   15.4871 C.ar    1  UNL1       -0.0118
     27 C          65.7552   92.0482   14.0287 C.ar    1  UNL1        0.0121
     28 N          67.3939   92.7644   12.1441 N.pl3   1  UNL1       -0.2187
     29 H          68.2057   92.3403   11.7830 H       1  UNL1        0.1734
     30 C          65.5743   94.3098   10.3272 C.3     1  UNL1        0.1996
     31 S          66.4841   93.5371   11.2356 S.O2    1  UNL1        0.0558
     32 O          66.6523   94.7514   12.1000 O.2     1  UNL1       -0.1544
     33 O          66.3159   92.3227   10.3713 O.2     1  UNL1       -0.1544
@<TRIPOS>BOND
     1    30    31    1
     2    31    32    2
     3    31    33    2
     4    31    28    1
     5    28    22    1
     6    22    23   ar
     7    23    24   ar
     8    24    25   ar
     9    25    26   ar
    10    26    21    1
    11    21     1    1
    12     1     2    2
    13     1     3   am
    14     3     5    1
    15     5     6   ar
    16     6     7   ar
    17     7    11    1
    18    11    12   ar
    19    12    13   ar
    20    13    14   ar
    21    14    15   ar
    22    15    16   ar
    23    16    17   ar
    24    17    18   ar
    25    18    19   ar
    26     7     8   ar
    27     8     9   ar
    28     9    10   ar
    29    26    27   ar
    30    27    22   ar
    31    10     5   ar
    32    19    11   ar
    33    19    14    1
    34    28    29    1
    35     3     4    1
    36    15    20    1
@<TRIPOS>MOLECULE
*****
 33 36 0 0 0
SMALL
GASTEIGER

@<TRIPOS>ATOM
      1 C          63.0273   84.3488   15.1004 C.2     1  UNL1        0.2316
      2 O          61.6112   84.8138   15.2694 O.2     1  UNL1       -0.2744
      3 N          64.1585   85.3243   15.2372 N.am    1  UNL1       -0.2690
      4 H          65.0879   85.0192   15.1263 H       1  UNL1        0.1563
      5 C          63.8735   86.7649   15.5430 C.ar    1  UNL1        0.1374
      6 C          64.2049   87.8253   14.5352 C.ar    1  UNL1        0.0537
      7 C          63.9200   89.2659   14.8409 C.ar    1  UNL1        0.0874
      8 N          63.3036   89.6461   16.1545 N.ar    1  UNL1       -0.2238
      9 C          62.9722   88.5857   17.1623 C.ar    1  UNL1        0.2000
     10 N          63.2571   87.1451   16.8566 N.ar    1  UNL1       -0.2088
     11 C          64.2514   90.3263   13.8331 C.ar    1  UNL1        0.0399
     12 C          63.7216   90.4076   12.4321 C.ar    1  UNL1        0.1021
     13 N          64.3137   91.6231   11.7825 N.ar    1  UNL1       -0.2269
     14 C          65.2094   92.2930   12.7820 C.ar    1  UNL1        0.1406
     15 N          66.0550   93.5293   12.7018 N.ar    1  UNL1       -0.3374
     16 C          66.8622   93.9641   13.8889 C.ar    1  UNL1        0.0735
     17 C          66.8237   93.1627   15.1563 C.ar    1  UNL1        0.0186
     18 C          65.9781   91.9264   15.2365 C.ar    1  UNL1        0.0046
     19 C          65.1709   91.4916   14.0493 C.ar    1  UNL1        0.0369
     20 H          66.0802   94.0553   11.8699 H       1  UNL1        0.1674
     21 C          63.3122   82.9081   14.7946 C.3     1  UNL1        0.1117
     22 C          63.5491   82.8793   10.8332 C.ar    1  UNL1        0.0641
     23 C          63.2088   81.4483   10.5393 C.ar    1  UNL1        0.0158
     24 C          62.9030   80.5038   11.6637 C.ar    1  UNL1        0.0010
     25 C          62.9375   80.9905   13.0822 C.ar    1  UNL1       -0.0037
     26 C          63.2777   82.4215   13.3761 C.ar    1  UNL1       -0.0118
     27 C          63.5836   83.3659   12.2517 C.ar    1  UNL1        0.0121
     28 N          63.8550   83.8237    9.7086 N.pl3   1  UNL1       -0.2187
     29 H          64.6976   83.7356    9.2072 H       1  UNL1        0.1734
     30 C          61.8989   85.9810    8.9876 C.3     1  UNL1        0.1996
     31 S          62.8770   84.9024    9.3481 S.O2    1  UNL1        0.0558
     32 O          62.5969   85.1348   10.8033 O.2     1  UNL1       -0.1544
     33 O          63.1571   84.6699    7.8929 O.2     1  UNL1       -0.1544
@<TRIPOS>BOND
     1    30    31    1
     2    31    32    2
     3    31    33    2
     4    31    28    1
     5    28    22    1
     6    22    23   ar
     7    23    24   ar
     8    24    25   ar
     9    25    26   ar
    10    26    21    1
    11    21     1    1
    12     1     2    2
    13     1     3   am
    14     3     5    1
    15     5     6   ar
    16     6     7   ar
    17     7    11    1
    18    11    12   ar
    19    12    13   ar
    20    13    14   ar
    21    14    15   ar
    22    15    16   ar
    23    16    17   ar
    24    17    18   ar
    25    18    19   ar
    26     7     8   ar
    27     8     9   ar
    28     9    10   ar
    29    26    27   ar
    30    27    22   ar
    31    10     5   ar
    32    19    11   ar
    33    19    14    1
    34    28    29    1
    35     3     4    1
    36    15    20    1
@<TRIPOS>MOLECULE
*****
 33 36 0 0 0
SMALL
GASTEIGER

@<TRIPOS>ATOM
      1 C          63.7068   90.2974   15.0573 C.2     1  UNL1        0.2316
      2 O          62.5874   89.5822   15.7539 O.2     1  UNL1       -0.2744
      3 N          64.2359   89.7739   13.7550 N.am    1  UNL1       -0.2690
      4 H          64.9706   90.2434   13.2978 H       1  UNL1        0.1563
      5 C          63.6455   88.5352   13.1494 C.ar    1  UNL1        0.1374
      6 C          63.8670   87.2027   13.8016 C.ar    1  UNL1        0.0537
      7 C          63.2766   85.9638   13.1960 C.ar    1  UNL1        0.0874
      8 N          62.4648   86.0575   11.9383 N.ar    1  UNL1       -0.2238
      9 C          62.2433   87.3900   11.2860 C.ar    1  UNL1        0.2000
     10 N          62.8337   88.6288   11.8916 N.ar    1  UNL1       -0.2088
     11 C          63.4981   84.6313   13.8483 C.ar    1  UNL1        0.0399
     12 C          64.0158   84.4050   15.2378 C.ar    1  UNL1        0.1021
     13 N          64.0784   82.9250   15.4738 N.ar    1  UNL1       -0.2269
     14 C          63.5994   82.2366   14.2301 C.ar    1  UNL1        0.1406
     15 N          63.4435   80.7858   13.8827 N.ar    1  UNL1       -0.3374
     16 C          62.9289   80.3895   12.5306 C.ar    1  UNL1        0.0735
     17 C          62.5703   81.4441   11.5260 C.ar    1  UNL1        0.0186
     18 C          62.7262   82.8949   11.8734 C.ar    1  UNL1        0.0046
     19 C          63.2407   83.2912   13.2255 C.ar    1  UNL1        0.0369
     20 H          63.6789   80.0936   14.5420 H       1  UNL1        0.1674
     21 C          64.2972   91.5363   15.6631 C.3     1  UNL1        0.1117
     22 C          67.5425   92.2913   13.5073 C.ar    1  UNL1        0.0641
     23 C          68.4717   92.8080   14.5653 C.ar    1  UNL1        0.0158
     24 C          68.0095   92.9009   15.9892 C.ar    1  UNL1        0.0010
     25 C          66.6180   92.4770   16.3552 C.ar    1  UNL1       -0.0037
     26 C          65.6887   91.9602   15.2971 C.ar    1  UNL1       -0.0118
     27 C          66.1509   91.8674   13.8732 C.ar    1  UNL1        0.0121
     28 N          68.0047   92.1984   12.0832 N.pl3   1  UNL1       -0.2187
     29 H          68.7853   91.6439   11.8542 H       1  UNL1        0.1734
     30 C          66.5508   93.7027    9.9331 C.3     1  UNL1        0.1996
     31 S          67.2778   92.9506   11.0081 S.O2    1  UNL1        0.0558
     32 O          67.6654   91.8995   10.0106 O.2     1  UNL1       -0.1544
     33 O          66.8901   94.0016   12.0057 O.2     1  UNL1       -0.1544
@<TRIPOS>BOND
     1    30    31    1
     2    31    32    2
     3    31    33    2
     4    31    28    1
     5    28    22    1
     6    22    23   ar
     7    23    24   ar
     8    24    25   ar
     9    25    26   ar
    10    26    21    1
    11    21     1    1
    12     1     2    2
    13     1     3   am
    14     3     5    1
    15     5     6   ar
    16     6     7   ar
    17     7    11    1
    18    11    12   ar
    19    12    13   ar
    20    13    14   ar
    21    14    15   ar
    22    15    16   ar
    23    16    17   ar
    24    17    18   ar
    25    18    19   ar
    26     7     8   ar
    27     8     9   ar
    28     9    10   ar
    29    26    27   ar
    30    27    22   ar
    31    10     5   ar
    32    19    11   ar
    33    19    14    1
    34    28    29    1
    35     3     4    1
    36    15    20    1
@<TRIPOS>MOLECULE
*****
 33 36 0 0 0
SMALL
GASTEIGER

@<TRIPOS>ATOM
      1 C          62.4409   89.8722   11.4095 C.2     1  UNL1        0.2316
      2 O          62.7255   90.9270   10.3818 O.2     1  UNL1       -0.2744
      3 N          63.1791   89.8786   12.7153 N.am    1  UNL1       -0.2690
      4 H          62.9923   89.1864   13.3899 H       1  UNL1        0.1563
      5 C          64.2020   90.9399   12.9931 C.ar    1  UNL1        0.1374
      6 C          65.0505   91.4742   11.8774 C.ar    1  UNL1        0.0537
      7 C          66.0735   92.5356   12.1552 C.ar    1  UNL1        0.0874
      8 N          66.2479   93.0626   13.5487 N.ar    1  UNL1       -0.2238
      9 C          65.3995   92.5283   14.6643 C.ar    1  UNL1        0.2000
     10 N          64.3766   91.4670   14.3866 N.ar    1  UNL1       -0.2088
     11 C          66.9219   93.0698   11.0396 C.ar    1  UNL1        0.0399
     12 C          68.0949   92.3754   10.4137 C.ar    1  UNL1        0.1021
     13 N          68.6442   93.2687    9.3412 N.ar    1  UNL1       -0.2269
     14 C          67.8107   94.5152    9.3042 C.ar    1  UNL1        0.1406
     15 N          67.8835   95.7463    8.4504 N.ar    1  UNL1       -0.3374
     16 C          66.8918   96.8545    8.6463 C.ar    1  UNL1        0.0735
     17 C          65.8273   96.7316    9.6959 C.ar    1  UNL1        0.0186
     18 C          65.7545   95.5005   10.5498 C.ar    1  UNL1        0.0046
     19 C          66.7462   94.3923   10.3539 C.ar    1  UNL1        0.0369
     20 H          68.5821   95.8270    7.7615 H       1  UNL1        0.1674
     21 C          61.4179   88.8108   11.1316 C.3     1  UNL1        0.1117
     22 C          62.4311   84.9824   11.3883 C.ar    1  UNL1        0.0641
     23 C          62.7330   84.6721    9.9521 C.ar    1  UNL1        0.0158
     24 C          62.5965   85.7414    8.9091 C.ar    1  UNL1        0.0010
     25 C          62.1581   87.1210    9.3022 C.ar    1  UNL1       -0.0037
     26 C          61.8562   87.4312   10.7384 C.ar    1  UNL1       -0.0118
     27 C          61.9927   86.3620   11.7815 C.ar    1  UNL1        0.0121
     28 N          62.5676   83.9130   12.4314 N.pl3   1  UNL1       -0.2187
     29 H          62.0793   83.0638   12.3326 H       1  UNL1        0.1734
     30 C          64.3285   84.3619   14.8184 C.3     1  UNL1        0.1996
     31 S          63.4480   84.1375   13.6249 S.O2    1  UNL1        0.0558
     32 O          64.6508   83.7726   12.8062 O.2     1  UNL1       -0.1544
     33 O          62.2452   84.5023   14.4435 O.2     1  UNL1       -0.1544
@<TRIPOS>BOND
     1    30    31    1
     2    31    32    2
     3    31    33    2
     4    31    28    1
     5    28    22    1
     6    22    23   ar
     7    23    24   ar
     8    24    25   ar
     9    25    26   ar
    10    26    21    1
    11    21     1    1
    12     1     2    2
    13     1     3   am
    14     3     5    1
    15     5     6   ar
    16     6     7   ar
    17     7    11    1
    18    11    12   ar
    19    12    13   ar
    20    13    14   ar
    21    14    15   ar
    22    15    16   ar
    23    16    17   ar
    24    17    18   ar
    25    18    19   ar
    26     7     8   ar
    27     8     9   ar
    28     9    10   ar
    29    26    27   ar
    30    27    22   ar
    31    10     5   ar
    32    19    11   ar
    33    19    14    1
    34    28    29    1
    35     3     4    1
    36    15    20    1
