@<TRIPOS>MOLECULE
*****
 42 45 0 0 0
SMALL
GASTEIGER

@<TRIPOS>ATOM
      1 C          61.9288   88.5145   11.0568 C.3     1  UNL1        0.0808
      2 C          63.6586   89.3168   12.8216 C.ar    1  UNL1        0.2211
      3 N          64.6855   90.3117   13.2753 N.ar    1  UNL1       -0.2119
      4 C          65.0095   91.4991   12.4179 C.ar    1  UNL1        0.0844
      5 C          66.0363   92.4939   12.8716 C.ar    1  UNL1        0.0197
      6 C          66.3602   93.6814   12.0142 C.ar    1  UNL1        0.0082
      7 C          65.6573   93.8739   10.7032 C.ar    1  UNL1        0.0347
      8 BR         65.9813   95.0614    9.8458 Br      1  UNL1       -0.0490
      9 C          64.6304   92.8791   10.2495 C.ar    1  UNL1        0.0082
     10 C          64.3065   91.6916   11.1068 C.ar    1  UNL1        0.0181
     11 C          63.2797   90.6968   10.6532 C.ar    1  UNL1        0.0023
     12 C          62.9557   89.5094   11.5106 C.ar    1  UNL1        0.0375
     13 C          64.3349   87.6319   14.6801 C.3     1  UNL1        0.2542
     14 O          63.3347   88.1293   13.6789 O.3     1  UNL1       -0.4563
     15 C          62.3608   87.2396   10.3951 C.ar    1  UNL1        0.0245
     16 C          62.8167   87.2534    8.9661 C.ar    1  UNL1        0.0200
     17 C          63.2487   85.9784    8.3043 C.ar    1  UNL1        0.1019
     18 N          63.2249   84.6897    9.0716 N.ar    1  UNL1       -0.2076
     19 C          62.7690   84.6759   10.5006 C.ar    1  UNL1        0.2598
     20 C          62.3370   85.9509   11.1623 C.ar    1  UNL1        0.1879
     21 O          62.7452   83.3872   11.2678 O.3     1  UNL1       -0.4541
     22 C          63.7304   82.3034   10.9442 C.3     1  UNL1        0.2543
     23 O          61.8812   85.9371   12.5913 O.3     1  UNL1       -0.4670
     24 C          62.3806   84.8770   13.5277 C.3     1  UNL1        0.2527
     25 C          60.4700   88.7946   11.2649 C.3     1  UNL1        0.1160
     26 O          60.7492   89.1955   12.6831 O.3     1  UNL1       -0.3820
     27 H          60.0162   89.7362   13.0165 H       1  UNL1        0.2107
     28 C          60.1908   88.3937    9.8467 C.ar    1  UNL1        0.0054
     29 C          59.8037   86.9797    9.5294 C.ar    1  UNL1       -0.0018
     30 C          59.5245   86.5788    8.1111 C.ar    1  UNL1        0.0029
     31 C          59.6323   87.5919    7.0103 C.ar    1  UNL1        0.0371
     32 C          60.0194   89.0060    7.3276 C.ar    1  UNL1        0.1440
     33 C          60.2986   89.4069    8.7458 C.ar    1  UNL1        0.0351
     34 O          60.1272   90.0191    6.2267 O.3     1  UNL1       -0.4236
     35 C          58.8857   90.6060    5.6232 C.3     1  UNL1        0.5087
     36 F          57.5384   90.0767    6.0164 F       1  UNL1       -0.1550
     37 F          58.9914   91.7220    4.6267 F       1  UNL1       -0.1550
     38 C          59.0112   89.0747   11.4729 C.3     1  UNL1        0.0491
     39 C          58.5285   89.5960   12.7940 C.3     1  UNL1        0.0750
     40 N          58.0134   88.6444   13.8329 N.3     1  UNL1       -0.2702
     41 C          56.7060   87.9400   13.6224 C.3     1  UNL1        0.0897
     42 C          58.8058   88.3973   15.0823 C.3     1  UNL1        0.0897
@<TRIPOS>BOND
     1    13    14    1
     2    14     2    1
     3     2     3   ar
     4     3     4   ar
     5     4     5   ar
     6     5     6   ar
     7     6     7   ar
     8     7     8    1
     9     7     9   ar
    10     9    10   ar
    11    10    11   ar
    12    11    12   ar
    13     1    12    1
    14     1    15    1
    15    15    16   ar
    16    16    17   ar
    17    17    18   ar
    18    18    19   ar
    19    19    21    1
    20    21    22    1
    21    19    20   ar
    22    20    23    1
    23    23    24    1
    24     1    25    1
    25    25    26    1
    26    25    38    1
    27    38    39    1
    28    39    40    1
    29    40    41    1
    30    40    42    1
    31    25    28    1
    32    28    29   ar
    33    29    30   ar
    34    30    31   ar
    35    31    32   ar
    36    32    34    1
    37    34    35    1
    38    35    36    1
    39    35    37    1
    40    32    33   ar
    41    12     2   ar
    42    20    15   ar
    43    33    28   ar
    44    10     4   ar
    45    26    27    1
@<TRIPOS>MOLECULE
*****
 42 45 0 0 0
SMALL
GASTEIGER

@<TRIPOS>ATOM
      1 C          62.3532   89.3053   12.2979 C.3     1  UNL1        0.0808
      2 C          63.4167   87.7027   14.0446 C.ar    1  UNL1        0.2211
      3 N          63.9070   86.3372   14.4256 N.ar    1  UNL1       -0.2119
      4 C          63.8240   85.2088   13.4408 C.ar    1  UNL1        0.0844
      5 C          64.3143   83.8433   13.8218 C.ar    1  UNL1        0.0197
      6 C          64.2313   82.7149   12.8370 C.ar    1  UNL1        0.0082
      7 C          63.6581   82.9519   11.4713 C.ar    1  UNL1        0.0347
      8 BR         63.5751   81.8235   10.4865 Br      1  UNL1       -0.0490
      9 C          63.1678   84.3175   11.0903 C.ar    1  UNL1        0.0082
     10 C          63.2508   85.4459   12.0751 C.ar    1  UNL1        0.0181
     11 C          62.7605   86.8113   11.6941 C.ar    1  UNL1        0.0023
     12 C          62.8435   87.9397   12.6789 C.ar    1  UNL1        0.0375
     13 C          63.1507   88.5971   16.4694 C.3     1  UNL1        0.2542
     14 O          63.4996   88.8311   15.0294 O.3     1  UNL1       -0.4563
     15 C          63.3206   90.3372   11.7987 C.ar    1  UNL1        0.0245
     16 C          63.5899   90.4636   10.3284 C.ar    1  UNL1        0.0200
     17 C          64.5573   91.4955    9.8292 C.ar    1  UNL1        0.1019
     18 N          65.2554   92.4011   10.8002 N.ar    1  UNL1       -0.2076
     19 C          64.9860   92.2746   12.2704 C.ar    1  UNL1        0.2598
     20 C          64.0186   91.2427   12.7696 C.ar    1  UNL1        0.1879
     21 O          65.6841   93.1801   13.2413 O.3     1  UNL1       -0.4541
     22 C          66.4247   94.3857   12.7433 C.3     1  UNL1        0.2543
     23 O          63.7493   91.1162   14.2398 O.3     1  UNL1       -0.4670
     24 C          64.8086   91.4958   15.2318 C.3     1  UNL1        0.2527
     25 C          60.8955   89.6388   12.4161 C.3     1  UNL1        0.1160
     26 O          61.1012   90.0296   13.8496 O.3     1  UNL1       -0.3820
     27 H          60.3693   90.5969   14.1383 H       1  UNL1        0.2107
     28 C          60.6898   89.2480   10.9827 C.ar    1  UNL1        0.0054
     29 C          60.3827   90.2974    9.9558 C.ar    1  UNL1       -0.0018
     30 C          60.1770   89.9065    8.5223 C.ar    1  UNL1        0.0029
     31 C          60.2784   88.4663    8.1156 C.ar    1  UNL1        0.0371
     32 C          60.5855   87.4168    9.1425 C.ar    1  UNL1        0.1440
     33 C          60.7912   87.8077   10.5760 C.ar    1  UNL1        0.0351
     34 O          60.6870   85.9765    8.7358 O.3     1  UNL1       -0.4236
     35 C          61.7929   85.5302    7.8261 C.3     1  UNL1        0.5087
     36 F          61.4704   84.8073    6.5520 F       1  UNL1       -0.1550
     37 F          63.2215   85.8067    8.1906 F       1  UNL1       -0.1550
     38 C          59.4379   89.9723   12.5344 C.3     1  UNL1        0.0491
     39 C          58.4056   88.9003   12.3465 C.3     1  UNL1        0.0750
     40 N          57.6884   88.3331   13.5357 N.3     1  UNL1       -0.2702
     41 C          56.2560   87.9049   13.4136 C.3     1  UNL1        0.0897
     42 C          58.4036   88.1941   14.8468 C.3     1  UNL1        0.0897
@<TRIPOS>BOND
     1    13    14    1
     2    14     2    1
     3     2     3   ar
     4     3     4   ar
     5     4     5   ar
     6     5     6   ar
     7     6     7   ar
     8     7     8    1
     9     7     9   ar
    10     9    10   ar
    11    10    11   ar
    12    11    12   ar
    13     1    12    1
    14     1    15    1
    15    15    16   ar
    16    16    17   ar
    17    17    18   ar
    18    18    19   ar
    19    19    21    1
    20    21    22    1
    21    19    20   ar
    22    20    23    1
    23    23    24    1
    24     1    25    1
    25    25    26    1
    26    25    38    1
    27    38    39    1
    28    39    40    1
    29    40    41    1
    30    40    42    1
    31    25    28    1
    32    28    29   ar
    33    29    30   ar
    34    30    31   ar
    35    31    32   ar
    36    32    34    1
    37    34    35    1
    38    35    36    1
    39    35    37    1
    40    32    33   ar
    41    12     2   ar
    42    20    15   ar
    43    33    28   ar
    44    10     4   ar
    45    26    27    1
@<TRIPOS>MOLECULE
*****
 42 45 0 0 0
SMALL
GASTEIGER

@<TRIPOS>ATOM
      1 C          61.9900   88.2677   11.0714 C.3     1  UNL1        0.0808
      2 C          63.6562   89.1315   12.8680 C.ar    1  UNL1        0.2211
      3 N          64.6264   90.1702   13.3474 N.ar    1  UNL1       -0.2119
      4 C          64.9006   91.3838   12.5096 C.ar    1  UNL1        0.0844
      5 C          65.8708   92.4225   12.9889 C.ar    1  UNL1        0.0197
      6 C          66.1450   93.6362   12.1511 C.ar    1  UNL1        0.0082
      7 C          65.4490   93.8111   10.8340 C.ar    1  UNL1        0.0347
      8 BR         65.7232   95.0247    9.9962 Br      1  UNL1       -0.0490
      9 C          64.4788   92.7724   10.3546 C.ar    1  UNL1        0.0082
     10 C          64.2046   91.5588   11.1924 C.ar    1  UNL1        0.0181
     11 C          63.2344   90.5201   10.7130 C.ar    1  UNL1        0.0023
     12 C          62.9602   89.3064   11.5508 C.ar    1  UNL1        0.0375
     13 C          64.3560   87.5050   14.7693 C.3     1  UNL1        0.2542
     14 O          63.3820   87.9179   13.7058 O.3     1  UNL1       -0.4563
     15 C          62.4949   87.0057   10.4372 C.ar    1  UNL1        0.0245
     16 C          63.0755   87.0415    9.0545 C.ar    1  UNL1        0.0200
     17 C          63.5805   85.7794    8.4202 C.ar    1  UNL1        0.1019
     18 N          63.5049   84.4816    9.1687 N.ar    1  UNL1       -0.2076
     19 C          62.9244   84.4459   10.5513 C.ar    1  UNL1        0.2598
     20 C          62.4194   85.7079   11.1855 C.ar    1  UNL1        0.1879
     21 O          62.8488   83.1482   11.2996 O.3     1  UNL1       -0.4541
     22 C          63.5691   81.9395   10.7797 C.3     1  UNL1        0.2543
     23 O          61.8388   85.6722   12.5681 O.3     1  UNL1       -0.4670
     24 C          62.4092   84.7419   13.5973 C.3     1  UNL1        0.2527
     25 C          60.5148   88.4911   11.2262 C.3     1  UNL1        0.1160
     26 O          60.7079   88.7507   12.6909 O.3     1  UNL1       -0.3820
     27 H          59.9432   89.2373   13.0366 H       1  UNL1        0.2107
     28 C          60.3218   88.2314    9.7616 C.ar    1  UNL1        0.0054
     29 C          60.2410   89.3802    8.8005 C.ar    1  UNL1       -0.0018
     30 C          60.0480   89.1204    7.3357 C.ar    1  UNL1        0.0029
     31 C          59.9356   87.7120    6.8322 C.ar    1  UNL1        0.0371
     32 C          60.0164   86.5632    7.7933 C.ar    1  UNL1        0.1440
     33 C          60.2094   86.8229    9.2580 C.ar    1  UNL1        0.0351
     34 O          59.9041   85.1547    7.2897 O.3     1  UNL1       -0.4236
     35 C          60.9410   84.6078    6.3541 C.3     1  UNL1        0.5087
     36 F          60.7056   83.3023    5.6540 F       1  UNL1       -0.1550
     37 F          62.2135   85.3664    6.1185 F       1  UNL1       -0.1550
     38 C          59.0397   88.7144   11.3811 C.3     1  UNL1        0.0491
     39 C          58.5112   89.4194   12.5950 C.3     1  UNL1        0.0750
     40 N          57.9113   88.6287   13.7198 N.3     1  UNL1       -0.2702
     41 C          58.6821   88.4297   14.9912 C.3     1  UNL1        0.0897
     42 C          56.5408   88.0370   13.5732 C.3     1  UNL1        0.0897
@<TRIPOS>BOND
     1    13    14    1
     2    14     2    1
     3     2     3   ar
     4     3     4   ar
     5     4     5   ar
     6     5     6   ar
     7     6     7   ar
     8     7     8    1
     9     7     9   ar
    10     9    10   ar
    11    10    11   ar
    12    11    12   ar
    13     1    12    1
    14     1    15    1
    15    15    16   ar
    16    16    17   ar
    17    17    18   ar
    18    18    19   ar
    19    19    21    1
    20    21    22    1
    21    19    20   ar
    22    20    23    1
    23    23    24    1
    24     1    25    1
    25    25    26    1
    26    25    38    1
    27    38    39    1
    28    39    40    1
    29    40    41    1
    30    40    42    1
    31    25    28    1
    32    28    29   ar
    33    29    30   ar
    34    30    31   ar
    35    31    32   ar
    36    32    34    1
    37    34    35    1
    38    35    36    1
    39    35    37    1
    40    32    33   ar
    41    12     2   ar
    42    20    15   ar
    43    33    28   ar
    44    10     4   ar
    45    26    27    1
@<TRIPOS>MOLECULE
*****
 42 45 0 0 0
SMALL
GASTEIGER

@<TRIPOS>ATOM
      1 C          62.4758   86.0879   12.4446 C.3     1  UNL1        0.0808
      2 C          63.8149   87.1825   14.3833 C.ar    1  UNL1        0.2211
      3 N          64.5674   88.3529   14.9437 N.ar    1  UNL1       -0.2119
      4 C          64.7333   89.5991   14.1255 C.ar    1  UNL1        0.0844
      5 C          65.4858   90.7695   14.6857 C.ar    1  UNL1        0.0197
      6 C          65.6517   92.0157   13.8675 C.ar    1  UNL1        0.0082
      7 C          65.0652   92.0915   12.4890 C.ar    1  UNL1        0.0347
      8 BR         65.2311   93.3377   11.6708 Br      1  UNL1       -0.0490
      9 C          64.3126   90.9211   11.9287 C.ar    1  UNL1        0.0082
     10 C          64.1467   89.6749   12.7469 C.ar    1  UNL1        0.0181
     11 C          63.3942   88.5045   12.1867 C.ar    1  UNL1        0.0023
     12 C          63.2283   87.2583   13.0049 C.ar    1  UNL1        0.0375
     13 C          63.5030   86.0312   16.6915 C.3     1  UNL1        0.2542
     14 O          63.6490   85.9363   15.2015 O.3     1  UNL1       -0.4563
     15 C          62.1219   86.0518   10.9874 C.ar    1  UNL1        0.0245
     16 C          63.0294   85.3622   10.0121 C.ar    1  UNL1        0.0200
     17 C          62.6755   85.3261    8.5549 C.ar    1  UNL1        0.1019
     18 N          61.4143   85.9796    8.0729 N.ar    1  UNL1       -0.2076
     19 C          60.5069   86.6692    9.0482 C.ar    1  UNL1        0.2598
     20 C          60.8608   86.7053   10.5054 C.ar    1  UNL1        0.1879
     21 O          59.2457   87.3227    8.5662 O.3     1  UNL1       -0.4541
     22 C          59.3098   88.3980    7.5225 C.3     1  UNL1        0.2543
     23 O          59.9534   87.3948   11.4807 O.3     1  UNL1       -0.4670
     24 C          59.8795   88.8928   11.5063 C.3     1  UNL1        0.2527
     25 C          62.0771   84.9536   13.3415 C.3     1  UNL1        0.1160
     26 O          61.1777   85.8766   14.1090 O.3     1  UNL1       -0.3820
     27 H          60.5207   85.3560   14.5971 H       1  UNL1        0.2107
     28 C          62.9766   84.0306   12.5740 C.ar    1  UNL1        0.0054
     29 C          64.4622   84.0963   12.7703 C.ar    1  UNL1       -0.0018
     30 C          65.3616   83.1732   12.0027 C.ar    1  UNL1        0.0029
     31 C          64.7754   82.1846   11.0390 C.ar    1  UNL1        0.0371
     32 C          63.2898   82.1189   10.8427 C.ar    1  UNL1        0.1440
     33 C          62.3903   83.0419   11.6102 C.ar    1  UNL1        0.0351
     34 O          62.7035   81.1302    9.8789 O.3     1  UNL1       -0.4236
     35 C          62.9206   79.6607   10.0872 C.3     1  UNL1        0.5087
     36 F          63.4510   78.8149    8.9677 F       1  UNL1       -0.1550
     37 F          62.6072   79.0370   11.4149 F       1  UNL1       -0.1550
     38 C          61.6785   83.8194   14.2384 C.3     1  UNL1        0.0491
     39 C          62.7010   82.8113   14.6724 C.3     1  UNL1        0.0750
     40 N          62.5184   81.3625   14.3295 N.3     1  UNL1       -0.2702
     41 C          61.1379   80.7864   14.2176 C.3     1  UNL1        0.0897
     42 C          63.7162   80.4897   14.0985 C.3     1  UNL1        0.0897
@<TRIPOS>BOND
     1    13    14    1
     2    14     2    1
     3     2     3   ar
     4     3     4   ar
     5     4     5   ar
     6     5     6   ar
     7     6     7   ar
     8     7     8    1
     9     7     9   ar
    10     9    10   ar
    11    10    11   ar
    12    11    12   ar
    13     1    12    1
    14     1    15    1
    15    15    16   ar
    16    16    17   ar
    17    17    18   ar
    18    18    19   ar
    19    19    21    1
    20    21    22    1
    21    19    20   ar
    22    20    23    1
    23    23    24    1
    24     1    25    1
    25    25    26    1
    26    25    38    1
    27    38    39    1
    28    39    40    1
    29    40    41    1
    30    40    42    1
    31    25    28    1
    32    28    29   ar
    33    29    30   ar
    34    30    31   ar
    35    31    32   ar
    36    32    34    1
    37    34    35    1
    38    35    36    1
    39    35    37    1
    40    32    33   ar
    41    12     2   ar
    42    20    15   ar
    43    33    28   ar
    44    10     4   ar
    45    26    27    1
@<TRIPOS>MOLECULE
*****
 42 45 0 0 0
SMALL
GASTEIGER

@<TRIPOS>ATOM
      1 C          63.0362   89.4836   12.9070 C.3     1  UNL1        0.0808
      2 C          60.7135   88.8382   11.9381 C.ar    1  UNL1        0.2211
      3 N          59.8874   88.1005   10.9263 N.ar    1  UNL1       -0.2119
      4 C          60.5579   87.2706    9.8720 C.ar    1  UNL1        0.0844
      5 C          59.7318   86.5330    8.8603 C.ar    1  UNL1        0.0197
      6 C          60.4023   85.7031    7.8059 C.ar    1  UNL1        0.0082
      7 C          61.8988   85.6108    7.7632 C.ar    1  UNL1        0.0347
      8 BR         62.5693   84.7809    6.7088 Br      1  UNL1       -0.0490
      9 C          62.7250   86.3485    8.7749 C.ar    1  UNL1        0.0082
     10 C          62.0545   87.1784    9.8293 C.ar    1  UNL1        0.0181
     11 C          62.8805   87.9160   10.8410 C.ar    1  UNL1        0.0023
     12 C          62.2100   88.7459   11.8953 C.ar    1  UNL1        0.0375
     13 C          58.6919   89.2734   13.5109 C.3     1  UNL1        0.2542
     14 O          60.0431   89.6681   12.9924 O.3     1  UNL1       -0.4563
     15 C          63.9914   90.5506   12.4610 C.ar    1  UNL1        0.0245
     16 C          63.9779   91.0217   11.0369 C.ar    1  UNL1        0.0200
     17 C          64.9331   92.0888   10.5909 C.ar    1  UNL1        0.1019
     18 N          65.9018   92.6848   11.5690 N.ar    1  UNL1       -0.2076
     19 C          65.9152   92.2137   12.9930 C.ar    1  UNL1        0.2598
     20 C          64.9600   91.1466   13.4390 C.ar    1  UNL1        0.1879
     21 O          66.8839   92.8096   13.9709 O.3     1  UNL1       -0.4541
     22 C          68.1722   92.1041   14.2752 C.3     1  UNL1        0.2543
     23 O          64.9735   90.6755   14.8630 O.3     1  UNL1       -0.4670
     24 C          64.8838   91.6696   15.9828 C.3     1  UNL1        0.2527
     25 C          62.9071   89.1541   14.3647 C.3     1  UNL1        0.1160
     26 O          62.2768   90.4927   14.6114 O.3     1  UNL1       -0.3820
     27 H          61.7863   90.4699   15.4479 H       1  UNL1        0.2107
     28 C          63.5373   87.8155   14.1180 C.ar    1  UNL1        0.0054
     29 C          64.8064   87.4423   14.8252 C.ar    1  UNL1       -0.0018
     30 C          65.4367   86.1036   14.5784 C.ar    1  UNL1        0.0029
     31 C          64.7978   85.1383   13.6245 C.ar    1  UNL1        0.0371
     32 C          63.5288   85.5115   12.9174 C.ar    1  UNL1        0.1440
     33 C          62.8985   86.8501   13.1641 C.ar    1  UNL1        0.0351
     34 O          62.8899   84.5461   11.9634 O.3     1  UNL1       -0.4236
     35 C          63.7197   83.4872   11.3000 C.3     1  UNL1        0.5087
     36 F          64.2104   82.3124   12.0931 F       1  UNL1       -0.1550
     37 F          64.0588   83.6031    9.8434 F       1  UNL1       -0.1550
     38 C          62.7780   88.8247   15.8223 C.3     1  UNL1        0.0491
     39 C          61.7823   87.7976   16.2738 C.3     1  UNL1        0.0750
     40 N          62.2375   86.6121   17.0723 N.3     1  UNL1       -0.2702
     41 C          62.2368   85.2458   16.4531 C.3     1  UNL1        0.0897
     42 C          62.6932   86.7928   18.4899 C.3     1  UNL1        0.0897
@<TRIPOS>BOND
     1    13    14    1
     2    14     2    1
     3     2     3   ar
     4     3     4   ar
     5     4     5   ar
     6     5     6   ar
     7     6     7   ar
     8     7     8    1
     9     7     9   ar
    10     9    10   ar
    11    10    11   ar
    12    11    12   ar
    13     1    12    1
    14     1    15    1
    15    15    16   ar
    16    16    17   ar
    17    17    18   ar
    18    18    19   ar
    19    19    21    1
    20    21    22    1
    21    19    20   ar
    22    20    23    1
    23    23    24    1
    24     1    25    1
    25    25    26    1
    26    25    38    1
    27    38    39    1
    28    39    40    1
    29    40    41    1
    30    40    42    1
    31    25    28    1
    32    28    29   ar
    33    29    30   ar
    34    30    31   ar
    35    31    32   ar
    36    32    34    1
    37    34    35    1
    38    35    36    1
    39    35    37    1
    40    32    33   ar
    41    12     2   ar
    42    20    15   ar
    43    33    28   ar
    44    10     4   ar
    45    26    27    1
@<TRIPOS>MOLECULE
*****
 42 45 0 0 0
SMALL
GASTEIGER

@<TRIPOS>ATOM
      1 C          61.9891   87.9183   10.7422 C.3     1  UNL1        0.0808
      2 C          63.2979   87.5053   12.9483 C.ar    1  UNL1        0.2211
      3 N          63.8036   86.5653   14.0022 N.ar    1  UNL1       -0.2119
      4 C          63.5062   85.0984   13.9040 C.ar    1  UNL1        0.0844
      5 C          64.0118   84.1584   14.9579 C.ar    1  UNL1        0.0197
      6 C          63.7144   82.6914   14.8597 C.ar    1  UNL1        0.0082
      7 C          62.9113   82.1645   13.7077 C.ar    1  UNL1        0.0347
      8 BR         62.6138   80.6976   13.6095 Br      1  UNL1       -0.0490
      9 C          62.4056   83.1045   12.6537 C.ar    1  UNL1        0.0082
     10 C          62.7030   84.5714   12.7519 C.ar    1  UNL1        0.0181
     11 C          62.1974   85.5114   11.6980 C.ar    1  UNL1        0.0023
     12 C          62.4948   86.9783   11.7962 C.ar    1  UNL1        0.0375
     13 C          63.5126   89.6671   14.3733 C.3     1  UNL1        0.2542
     14 O          63.5953   88.9722   13.0465 O.3     1  UNL1       -0.4563
     15 C          61.1708   87.3939    9.5997 C.ar    1  UNL1        0.0245
     16 C          59.7295   87.7877    9.4666 C.ar    1  UNL1        0.0200
     17 C          58.9111   87.2633    8.3241 C.ar    1  UNL1        0.1019
     18 N          59.5341   86.3450    7.3148 N.ar    1  UNL1       -0.2076
     19 C          60.9753   85.9512    7.4479 C.ar    1  UNL1        0.2598
     20 C          61.7936   86.4756    8.5904 C.ar    1  UNL1        0.1879
     21 O          61.5982   85.0329    6.4386 O.3     1  UNL1       -0.4541
     22 C          60.8312   83.8496    5.9272 C.3     1  UNL1        0.2543
     23 O          63.2348   86.0818    8.7236 O.3     1  UNL1       -0.4670
     24 C          63.6060   84.6371    8.8828 C.3     1  UNL1        0.2527
     25 C          62.3017   89.3827   10.8308 C.3     1  UNL1        0.1160
     26 O          63.6956   89.1144   10.3460 O.3     1  UNL1       -0.3820
     27 H          64.0806   89.9343    9.9989 H       1  UNL1        0.2107
     28 C          60.9078   89.6509   11.3156 C.ar    1  UNL1        0.0054
     29 C          60.1598   90.8530   10.8202 C.ar    1  UNL1       -0.0018
     30 C          58.7658   91.1212   11.3050 C.ar    1  UNL1        0.0029
     31 C          58.1200   90.1874   12.2852 C.ar    1  UNL1        0.0371
     32 C          58.8681   88.9854   12.7807 C.ar    1  UNL1        0.1440
     33 C          60.2619   88.7171   12.2959 C.ar    1  UNL1        0.0351
     34 O          58.2222   88.0516   13.7610 O.3     1  UNL1       -0.4236
     35 C          56.7512   87.7715   13.6727 C.3     1  UNL1        0.5087
     36 F          55.8540   88.7057   12.9162 F       1  UNL1       -0.1550
     37 F          56.1775   86.5573   14.3408 F       1  UNL1       -0.1550
     38 C          62.6144   90.8470   10.9194 C.3     1  UNL1        0.0491
     39 C          63.8180   91.4008   10.2162 C.3     1  UNL1        0.0750
     40 N          64.8613   92.1494   10.9916 N.3     1  UNL1       -0.2702
     41 C          65.8773   92.9841   10.2698 C.3     1  UNL1        0.0897
     42 C          64.8885   92.0634   12.4889 C.3     1  UNL1        0.0897
@<TRIPOS>BOND
     1    13    14    1
     2    14     2    1
     3     2     3   ar
     4     3     4   ar
     5     4     5   ar
     6     5     6   ar
     7     6     7   ar
     8     7     8    1
     9     7     9   ar
    10     9    10   ar
    11    10    11   ar
    12    11    12   ar
    13     1    12    1
    14     1    15    1
    15    15    16   ar
    16    16    17   ar
    17    17    18   ar
    18    18    19   ar
    19    19    21    1
    20    21    22    1
    21    19    20   ar
    22    20    23    1
    23    23    24    1
    24     1    25    1
    25    25    26    1
    26    25    38    1
    27    38    39    1
    28    39    40    1
    29    40    41    1
    30    40    42    1
    31    25    28    1
    32    28    29   ar
    33    29    30   ar
    34    30    31   ar
    35    31    32   ar
    36    32    34    1
    37    34    35    1
    38    35    36    1
    39    35    37    1
    40    32    33   ar
    41    12     2   ar
    42    20    15   ar
    43    33    28   ar
    44    10     4   ar
    45    26    27    1
@<TRIPOS>MOLECULE
*****
 42 45 0 0 0
SMALL
GASTEIGER

@<TRIPOS>ATOM
      1 C          63.1634   88.8088   12.1061 C.3     1  UNL1        0.0808
      2 C          60.7557   88.6617   11.1412 C.ar    1  UNL1        0.2211
      3 N          59.7914   88.1092   10.1336 N.ar    1  UNL1       -0.2119
      4 C          60.2708   87.1513    9.0835 C.ar    1  UNL1        0.0844
      5 C          59.3066   86.5988    8.0760 C.ar    1  UNL1        0.0197
      6 C          59.7860   85.6409    7.0260 C.ar    1  UNL1        0.0082
      7 C          61.2295   85.2355    6.9834 C.ar    1  UNL1        0.0347
      8 BR         61.7089   84.2776    5.9333 Br      1  UNL1       -0.0490
      9 C          62.1937   85.7880    7.9909 C.ar    1  UNL1        0.0082
     10 C          61.7144   86.7459    9.0410 C.ar    1  UNL1        0.0181
     11 C          62.6785   87.2984   10.0485 C.ar    1  UNL1        0.0023
     12 C          62.1992   88.2563   11.0986 C.ar    1  UNL1        0.0375
     13 C          59.1102   90.5200   11.9089 C.3     1  UNL1        0.2542
     14 O          60.2763   89.6196   12.1912 O.3     1  UNL1       -0.4563
     15 C          63.7379   87.9136   13.1638 C.ar    1  UNL1        0.0245
     16 C          64.7709   88.4427   14.1141 C.ar    1  UNL1        0.0200
     17 C          65.3454   87.5475   15.1718 C.ar    1  UNL1        0.1019
     18 N          64.8868   86.1233   15.2791 N.ar    1  UNL1       -0.2076
     19 C          63.8539   85.5943   14.3288 C.ar    1  UNL1        0.2598
     20 C          63.2794   86.4895   13.2712 C.ar    1  UNL1        0.1879
     21 O          63.3954   84.1702   14.4362 O.3     1  UNL1       -0.4541
     22 C          62.3892   83.7828   15.4791 C.3     1  UNL1        0.2543
     23 O          62.2464   85.9605   12.3209 O.3     1  UNL1       -0.4670
     24 C          62.3758   84.5714   11.7696 C.3     1  UNL1        0.2527
     25 C          63.5531   90.2564   12.0560 C.3     1  UNL1        0.1160
     26 O          63.6614   90.1755   10.5621 O.3     1  UNL1       -0.3820
     27 H          63.6090   91.0678   10.1853 H       1  UNL1        0.2107
     28 C          63.4449   90.3373   13.5498 C.ar    1  UNL1        0.0054
     29 C          62.3919   89.5477   14.2694 C.ar    1  UNL1       -0.0018
     30 C          62.2837   89.6287   15.7633 C.ar    1  UNL1        0.0029
     31 C          63.2285   90.4991   16.5376 C.ar    1  UNL1        0.0371
     32 C          64.2815   91.2887   15.8181 C.ar    1  UNL1        0.1440
     33 C          64.3897   91.2078   14.3242 C.ar    1  UNL1        0.0351
     34 O          65.2264   92.1592   16.5925 O.3     1  UNL1       -0.4236
     35 C          66.5206   92.5973   15.9737 C.3     1  UNL1        0.5087
     36 F          66.5270   93.6810   14.9366 F       1  UNL1       -0.1550
     37 F          67.8084   91.9519   16.3920 F       1  UNL1       -0.1550
     38 C          63.9429   91.7039   12.0058 C.3     1  UNL1        0.0491
     39 C          64.6726   92.2433   10.8114 C.3     1  UNL1        0.0750
     40 N          65.9885   92.9413   10.9886 N.3     1  UNL1       -0.2702
     41 C          66.0626   94.2117   11.7827 C.3     1  UNL1        0.0897
     42 C          67.2301   92.3690   10.3716 C.3     1  UNL1        0.0897
@<TRIPOS>BOND
     1    13    14    1
     2    14     2    1
     3     2     3   ar
     4     3     4   ar
     5     4     5   ar
     6     5     6   ar
     7     6     7   ar
     8     7     8    1
     9     7     9   ar
    10     9    10   ar
    11    10    11   ar
    12    11    12   ar
    13     1    12    1
    14     1    15    1
    15    15    16   ar
    16    16    17   ar
    17    17    18   ar
    18    18    19   ar
    19    19    21    1
    20    21    22    1
    21    19    20   ar
    22    20    23    1
    23    23    24    1
    24     1    25    1
    25    25    26    1
    26    25    38    1
    27    38    39    1
    28    39    40    1
    29    40    41    1
    30    40    42    1
    31    25    28    1
    32    28    29   ar
    33    29    30   ar
    34    30    31   ar
    35    31    32   ar
    36    32    34    1
    37    34    35    1
    38    35    36    1
    39    35    37    1
    40    32    33   ar
    41    12     2   ar
    42    20    15   ar
    43    33    28   ar
    44    10     4   ar
    45    26    27    1
@<TRIPOS>MOLECULE
*****
 42 45 0 0 0
SMALL
GASTEIGER

@<TRIPOS>ATOM
      1 C          63.3789   89.4219   13.4910 C.3     1  UNL1        0.0808
      2 C          61.0151   89.0304   12.4864 C.ar    1  UNL1        0.2211
      3 N          60.1337   88.4143   11.4406 N.ar    1  UNL1       -0.2119
      4 C          60.7349   87.5734   10.3536 C.ar    1  UNL1        0.0844
      5 C          59.8536   86.9573    9.3079 C.ar    1  UNL1        0.0197
      6 C          60.4547   86.1165    8.2209 C.ar    1  UNL1        0.0082
      7 C          61.9372   85.8918    8.1796 C.ar    1  UNL1        0.0347
      8 BR         62.5384   85.0510    7.0926 Br      1  UNL1       -0.0490
      9 C          62.8186   86.5080    9.2254 C.ar    1  UNL1        0.0082
     10 C          62.2174   87.3488   10.3124 C.ar    1  UNL1        0.0181
     11 C          63.0987   87.9649   11.3581 C.ar    1  UNL1        0.0023
     12 C          62.4975   88.8057   12.4452 C.ar    1  UNL1        0.0375
     13 C          59.3416   89.3028   14.4551 C.3     1  UNL1        0.2542
     14 O          60.4139   89.8712   13.5735 O.3     1  UNL1       -0.4563
     15 C          64.4010   90.4481   13.1007 C.ar    1  UNL1        0.0245
     16 C          65.6956   90.5410   13.8528 C.ar    1  UNL1        0.0200
     17 C          66.7176   91.5672   13.4625 C.ar    1  UNL1        0.1019
     18 N          66.4451   92.5005   12.3202 N.ar    1  UNL1       -0.2076
     19 C          65.1506   92.4075   11.5682 C.ar    1  UNL1        0.2598
     20 C          64.1285   91.3813   11.9584 C.ar    1  UNL1        0.1879
     21 O          64.8782   93.3407   10.4259 O.3     1  UNL1       -0.4541
     22 C          65.8321   94.4591   10.1272 C.3     1  UNL1        0.2543
     23 O          62.8340   91.2883   11.2064 O.3     1  UNL1       -0.4670
     24 C          62.8426   91.0595    9.7240 C.3     1  UNL1        0.2527
     25 C          63.2382   89.0118   14.9269 C.3     1  UNL1        0.1160
     26 O          62.6913   90.3681   15.2606 O.3     1  UNL1       -0.3820
     27 H          62.2049   90.3233   16.0987 H       1  UNL1        0.2107
     28 C          63.7851   87.6555   14.5932 C.ar    1  UNL1        0.0054
     29 C          65.0981   87.2139   15.1686 C.ar    1  UNL1       -0.0018
     30 C          65.6450   85.8576   14.8348 C.ar    1  UNL1        0.0029
     31 C          64.8789   84.9429   13.9257 C.ar    1  UNL1        0.0371
     32 C          63.5660   85.3846   13.3503 C.ar    1  UNL1        0.1440
     33 C          63.0191   86.7408   13.6840 C.ar    1  UNL1        0.0351
     34 O          62.7999   84.4699   12.4411 O.3     1  UNL1       -0.4236
     35 C          63.5058   83.3503   11.7353 C.3     1  UNL1        0.5087
     36 F          64.2829   83.6254   10.4822 F       1  UNL1       -0.1550
     37 F          63.4345   81.9555   12.2827 F       1  UNL1       -0.1550
     38 C          63.0975   88.6017   16.3629 C.3     1  UNL1        0.0491
     39 C          61.9941   87.6720   16.7727 C.3     1  UNL1        0.0750
     40 N          62.3125   86.4206   17.5361 N.3     1  UNL1       -0.2702
     41 C          62.7045   86.5031   18.9816 C.3     1  UNL1        0.0897
     42 C          62.2388   85.0867   16.8539 C.3     1  UNL1        0.0897
@<TRIPOS>BOND
     1    13    14    1
     2    14     2    1
     3     2     3   ar
     4     3     4   ar
     5     4     5   ar
     6     5     6   ar
     7     6     7   ar
     8     7     8    1
     9     7     9   ar
    10     9    10   ar
    11    10    11   ar
    12    11    12   ar
    13     1    12    1
    14     1    15    1
    15    15    16   ar
    16    16    17   ar
    17    17    18   ar
    18    18    19   ar
    19    19    21    1
    20    21    22    1
    21    19    20   ar
    22    20    23    1
    23    23    24    1
    24     1    25    1
    25    25    26    1
    26    25    38    1
    27    38    39    1
    28    39    40    1
    29    40    41    1
    30    40    42    1
    31    25    28    1
    32    28    29   ar
    33    29    30   ar
    34    30    31   ar
    35    31    32   ar
    36    32    34    1
    37    34    35    1
    38    35    36    1
    39    35    37    1
    40    32    33   ar
    41    12     2   ar
    42    20    15   ar
    43    33    28   ar
    44    10     4   ar
    45    26    27    1
@<TRIPOS>MOLECULE
*****
 42 45 0 0 0
SMALL
GASTEIGER

@<TRIPOS>ATOM
      1 C          62.8190   88.3516   12.6083 C.3     1  UNL1        0.0808
      2 C          63.5041   90.4577   11.2499 C.ar    1  UNL1        0.2211
      3 N          64.2863   91.7327   11.1364 N.ar    1  UNL1       -0.2119
      4 C          65.1655   92.1764   12.2678 C.ar    1  UNL1        0.0844
      5 C          65.9477   93.4512   12.1543 C.ar    1  UNL1        0.0197
      6 C          66.8270   93.8949   13.2857 C.ar    1  UNL1        0.0082
      7 C          66.9241   93.0637   14.5306 C.ar    1  UNL1        0.0347
      8 BR         67.8033   93.5074   15.6620 Br      1  UNL1       -0.0490
      9 C          66.1419   91.7888   14.6441 C.ar    1  UNL1        0.0082
     10 C          65.2626   91.3451   13.5127 C.ar    1  UNL1        0.0181
     11 C          64.4804   90.0703   13.6262 C.ar    1  UNL1        0.0023
     12 C          63.6012   89.6266   12.4948 C.ar    1  UNL1        0.0375
     13 C          62.2102   90.9947    9.0618 C.3     1  UNL1        0.2542
     14 O          62.6248   90.0141   10.1185 O.3     1  UNL1       -0.4563
     15 C          63.3483   87.2182   13.4360 C.ar    1  UNL1        0.0245
     16 C          64.0098   86.0482   12.7699 C.ar    1  UNL1        0.0200
     17 C          64.5391   84.9147   13.5976 C.ar    1  UNL1        0.1019
     18 N          64.4069   84.9513   15.0914 N.ar    1  UNL1       -0.2076
     19 C          63.7454   86.1212   15.7574 C.ar    1  UNL1        0.2598
     20 C          63.2161   87.2547   14.9297 C.ar    1  UNL1        0.1879
     21 O          63.6132   86.1577   17.2511 O.3     1  UNL1       -0.4541
     22 C          62.2536   86.2065   17.8827 C.3     1  UNL1        0.2543
     23 O          62.5546   88.4247   15.5956 O.3     1  UNL1       -0.4670
     24 C          63.3400   89.3005   16.5264 C.3     1  UNL1        0.2527
     25 C          61.5075   88.2102   11.8941 C.3     1  UNL1        0.1160
     26 O          60.9603   89.3721   12.6690 O.3     1  UNL1       -0.3820
     27 H          60.1897   89.7358   12.2054 H       1  UNL1        0.2107
     28 C          62.0548   87.0484   11.1192 C.ar    1  UNL1        0.0054
     29 C          62.7286   87.2780    9.7989 C.ar    1  UNL1       -0.0018
     30 C          63.2758   86.1160    9.0240 C.ar    1  UNL1        0.0029
     31 C          63.1494   84.7245    9.5694 C.ar    1  UNL1        0.0371
     32 C          62.4756   84.4948   10.8898 C.ar    1  UNL1        0.1440
     33 C          61.9284   85.6567   11.6647 C.ar    1  UNL1        0.0351
     34 O          62.3492   83.1032   11.4353 O.3     1  UNL1       -0.4236
     35 C          63.3953   82.0758   11.1191 C.3     1  UNL1        0.5087
     36 F          64.8150   82.2934   11.5516 F       1  UNL1       -0.1550
     37 F          63.0218   80.8308   10.3705 F       1  UNL1       -0.1550
     38 C          60.1961   88.0688   11.1799 C.3     1  UNL1        0.0491
     39 C          59.8940   88.9294    9.9891 C.3     1  UNL1        0.0750
     40 N          59.6009   88.2963    8.6612 N.3     1  UNL1       -0.2702
     41 C          59.3854   86.8147    8.5679 C.3     1  UNL1        0.0897
     42 C          59.5234   89.1446    7.4266 C.3     1  UNL1        0.0897
@<TRIPOS>BOND
     1    13    14    1
     2    14     2    1
     3     2     3   ar
     4     3     4   ar
     5     4     5   ar
     6     5     6   ar
     7     6     7   ar
     8     7     8    1
     9     7     9   ar
    10     9    10   ar
    11    10    11   ar
    12    11    12   ar
    13     1    12    1
    14     1    15    1
    15    15    16   ar
    16    16    17   ar
    17    17    18   ar
    18    18    19   ar
    19    19    21    1
    20    21    22    1
    21    19    20   ar
    22    20    23    1
    23    23    24    1
    24     1    25    1
    25    25    26    1
    26    25    38    1
    27    38    39    1
    28    39    40    1
    29    40    41    1
    30    40    42    1
    31    25    28    1
    32    28    29   ar
    33    29    30   ar
    34    30    31   ar
    35    31    32   ar
    36    32    34    1
    37    34    35    1
    38    35    36    1
    39    35    37    1
    40    32    33   ar
    41    12     2   ar
    42    20    15   ar
    43    33    28   ar
    44    10     4   ar
    45    26    27    1
