@<TRIPOS>MOLECULE
*****
 33 35 0 0 0
SMALL
GASTEIGER

@<TRIPOS>ATOM
      1 C          63.0916   89.1458   12.1327 C.ar    1  UNL1        0.0053
      2 C          63.3263   88.5339   13.4819 C.ar    1  UNL1        0.0033
      3 C          64.2163   89.2230   14.4734 C.ar    1  UNL1        0.0382
      4 C          64.8716   90.5240   14.1156 C.ar    1  UNL1        0.1524
      5 C          64.6369   91.1359   12.7664 C.ar    1  UNL1        0.0881
      6 C          63.7469   90.4468   11.7749 C.ar    1  UNL1        0.0181
      7 N          65.2922   92.4368   12.4086 N.am    1  UNL1       -0.2531
      8 C          66.1822   93.1259   13.4000 C.2     1  UNL1        0.2656
      9 O          66.8376   94.4269   13.0423 O.2     1  UNL1       -0.2708
     10 C          66.4169   92.5141   14.7494 C.3     1  UNL1        0.2011
     11 C          66.9426   92.3320   16.1424 C.3     1  UNL1        0.0532
     12 O          65.7616   91.2131   15.1071 O.3     1  UNL1       -0.4727
     13 C          62.1360   86.9585   11.1066 C.ar    1  UNL1        0.0645
     14 N          61.2461   86.2694   10.1151 N.ar    1  UNL1       -0.2183
     15 C          60.4216   87.0785    9.1581 C.ar    1  UNL1        0.2145
     16 N          59.5317   86.3894    8.1667 N.pl3   1  UNL1       -0.3274
     17 N          60.4872   88.5766    9.1927 N.ar    1  UNL1       -0.1995
     18 C          61.3772   89.2657   10.1842 C.ar    1  UNL1        0.1293
     19 N          61.4428   90.7639   10.2188 N.pl3   1  UNL1       -0.3425
     20 C          62.2016   88.4567   11.1412 C.ar    1  UNL1        0.0449
     21 H          59.4886   85.4061    8.1440 H       1  UNL1        0.1452
     22 H          58.9906   86.9204    7.5386 H       1  UNL1        0.1452
     23 H          60.9017   91.2949    9.5907 H       1  UNL1        0.1437
     24 H          62.0269   91.2162   10.8695 H       1  UNL1        0.1437
     25 C          62.7636   84.6652   12.1539 C.3     1  UNL1        0.0067
     26 C          62.9605   86.1494   12.0636 C.3     1  UNL1        0.0460
     27 C          67.2548   93.7518   14.8754 C.3     1  UNL1        0.0491
     28 C          68.4269   93.7720   15.8112 C.3     1  UNL1        0.0042
     29 C          65.0576   93.0487   11.0593 C.3     1  UNL1        0.1010
     30 C          66.1190   92.9646   10.0028 C.3     1  UNL1        0.0539
     31 C          67.0139   94.1402    9.7434 C.3     1  UNL1        0.1440
     32 O          68.4980   93.9457    9.6453 O.3     1  UNL1       -0.3510
     33 C          69.0566   92.5968    9.3014 C.3     1  UNL1        0.1741
@<TRIPOS>BOND
     1    25    26    1
     2    26    13    1
     3    13    14   ar
     4    14    15   ar
     5    15    16    1
     6    15    17   ar
     7    17    18   ar
     8    18    19    1
     9    18    20   ar
    10    20     1    1
    11     1     2   ar
    12     2     3   ar
    13     3     4   ar
    14     4     5   ar
    15     5     6   ar
    16     5     7    1
    17     7    29    1
    18    29    30    1
    19    30    31    1
    20    31    32    1
    21    32    33    1
    22     7     8   am
    23     8     9    2
    24     8    10    1
    25    10    11    1
    26    10    27    1
    27    27    28    1
    28    10    12    1
    29    20    13   ar
    30     6     1   ar
    31    12     4    1
    32    16    21    1
    33    16    22    1
    34    19    23    1
    35    19    24    1
@<TRIPOS>MOLECULE
*****
 33 35 0 0 0
SMALL
GASTEIGER

@<TRIPOS>ATOM
      1 C          63.5649   84.8735   13.6635 C.ar    1  UNL1        0.0053
      2 C          64.4762   85.3306   14.7637 C.ar    1  UNL1        0.0033
      3 C          64.8238   86.7839   14.8944 C.ar    1  UNL1        0.0382
      4 C          64.2600   87.7800   13.9249 C.ar    1  UNL1        0.1524
      5 C          63.3486   87.3229   12.8247 C.ar    1  UNL1        0.0881
      6 C          63.0011   85.8696   12.6940 C.ar    1  UNL1        0.0181
      7 N          62.7848   88.3190   11.8553 N.am    1  UNL1       -0.2531
      8 C          63.1323   89.7723   11.9860 C.2     1  UNL1        0.2656
      9 O          62.5685   90.7684   11.0165 O.2     1  UNL1       -0.2708
     10 C          64.0437   90.2295   13.0862 C.3     1  UNL1        0.2011
     11 C          64.8574   91.1428   13.9544 C.3     1  UNL1        0.0532
     12 O          64.6075   89.2334   14.0556 O.3     1  UNL1       -0.4727
     13 C          63.6528   82.6509   12.3208 C.ar    1  UNL1        0.0645
     14 N          63.3052   81.1977   12.1900 N.ar    1  UNL1       -0.2183
     15 C          62.5222   80.5135   13.2712 C.ar    1  UNL1        0.2145
     16 N          62.1747   79.0602   13.1404 N.pl3   1  UNL1       -0.3274
     17 N          62.0868   81.2827   14.4831 N.ar    1  UNL1       -0.1995
     18 C          62.4343   82.7360   14.6139 C.ar    1  UNL1        0.1293
     19 N          61.9989   83.5052   15.8258 N.pl3   1  UNL1       -0.3425
     20 C          63.2173   83.4201   13.5327 C.ar    1  UNL1        0.0449
     21 H          62.4605   78.5554   12.3450 H       1  UNL1        0.1452
     22 H          61.6608   78.6112   13.8500 H       1  UNL1        0.1452
     23 H          61.4850   83.0562   16.5354 H       1  UNL1        0.1437
     24 H          62.2270   84.4590   15.9116 H       1  UNL1        0.1437
     25 C          63.8492   83.4813    9.8668 C.3     1  UNL1        0.0067
     26 C          64.4358   83.3351   11.2397 C.3     1  UNL1        0.0460
     27 C          63.7625   91.5428   12.4183 C.3     1  UNL1        0.0491
     28 C          64.8952   92.4540   12.0487 C.3     1  UNL1        0.0042
     29 C          61.8735   87.8618   10.7551 C.3     1  UNL1        0.1010
     30 C          62.4466   87.2413    9.5156 C.3     1  UNL1        0.0539
     31 C          61.6180   86.2947    8.6987 C.3     1  UNL1        0.1440
     32 O          60.1285   86.2601    8.8726 O.3     1  UNL1       -0.3510
     33 C          59.2333   86.7442    7.7706 C.3     1  UNL1        0.1741
@<TRIPOS>BOND
     1    25    26    1
     2    26    13    1
     3    13    14   ar
     4    14    15   ar
     5    15    16    1
     6    15    17   ar
     7    17    18   ar
     8    18    19    1
     9    18    20   ar
    10    20     1    1
    11     1     2   ar
    12     2     3   ar
    13     3     4   ar
    14     4     5   ar
    15     5     6   ar
    16     5     7    1
    17     7    29    1
    18    29    30    1
    19    30    31    1
    20    31    32    1
    21    32    33    1
    22     7     8   am
    23     8     9    2
    24     8    10    1
    25    10    11    1
    26    10    27    1
    27    27    28    1
    28    10    12    1
    29    20    13   ar
    30     6     1   ar
    31    12     4    1
    32    16    21    1
    33    16    22    1
    34    19    23    1
    35    19    24    1
@<TRIPOS>MOLECULE
*****
 33 35 0 0 0
SMALL
GASTEIGER

@<TRIPOS>ATOM
      1 C          62.5884   85.2175   12.1721 C.ar    1  UNL1        0.0053
      2 C          62.0303   85.4714   10.8031 C.ar    1  UNL1        0.0033
      3 C          62.0536   86.8569   10.2289 C.ar    1  UNL1        0.0382
      4 C          62.6350   87.9885   11.0236 C.ar    1  UNL1        0.1524
      5 C          63.1931   87.7346   12.3925 C.ar    1  UNL1        0.0881
      6 C          63.1697   86.3491   12.9668 C.ar    1  UNL1        0.0181
      7 N          63.7745   88.8661   13.1872 N.am    1  UNL1       -0.2531
      8 C          63.7978   90.2516   12.6130 C.2     1  UNL1        0.2656
      9 O          64.3792   91.3832   13.4077 O.2     1  UNL1       -0.2708
     10 C          63.2397   90.5056   11.2440 C.3     1  UNL1        0.2011
     11 C          62.8347   91.2413   10.0011 C.3     1  UNL1        0.0532
     12 O          62.6583   89.3741   10.4493 O.3     1  UNL1       -0.4727
     13 C          62.8919   82.6541   11.8770 C.ar    1  UNL1        0.0645
     14 N          62.8686   81.2686   12.4512 N.ar    1  UNL1       -0.2183
     15 C          62.5185   81.0609   13.8949 C.ar    1  UNL1        0.2145
     16 N          62.4952   79.6754   14.4692 N.pl3   1  UNL1       -0.3274
     17 N          62.1917   82.2387   14.7644 N.ar    1  UNL1       -0.1995
     18 C          62.2150   83.6243   14.1901 C.ar    1  UNL1        0.1293
     19 N          61.8881   84.8021   15.0595 N.pl3   1  UNL1       -0.3425
     20 C          62.5651   83.8319   12.7464 C.ar    1  UNL1        0.0449
     21 H          62.7097   78.9023   13.8985 H       1  UNL1        0.1452
     22 H          62.2654   79.5391   15.4167 H       1  UNL1        0.1452
     23 H          61.6583   84.6658   16.0071 H       1  UNL1        0.1437
     24 H          61.9034   85.7115   14.6826 H       1  UNL1        0.1437
     25 C          64.6786   82.9874   10.0204 C.3     1  UNL1        0.0067
     26 C          63.2420   82.8619   10.4332 C.3     1  UNL1        0.0460
     27 C          63.6804   91.8926   11.6070 C.3     1  UNL1        0.0491
     28 C          64.7253   92.5869   10.7847 C.3     1  UNL1        0.0042
     29 C          64.3325   88.6122   14.5562 C.3     1  UNL1        0.1010
     30 C          63.8340   89.4046   15.7282 C.3     1  UNL1        0.0539
     31 C          63.0726   88.7221   16.8257 C.3     1  UNL1        0.1440
     32 O          62.8101   87.2471   16.7513 O.3     1  UNL1       -0.3510
     33 C          62.6835   86.4434   18.0115 C.3     1  UNL1        0.1741
@<TRIPOS>BOND
     1    25    26    1
     2    26    13    1
     3    13    14   ar
     4    14    15   ar
     5    15    16    1
     6    15    17   ar
     7    17    18   ar
     8    18    19    1
     9    18    20   ar
    10    20     1    1
    11     1     2   ar
    12     2     3   ar
    13     3     4   ar
    14     4     5   ar
    15     5     6   ar
    16     5     7    1
    17     7    29    1
    18    29    30    1
    19    30    31    1
    20    31    32    1
    21    32    33    1
    22     7     8   am
    23     8     9    2
    24     8    10    1
    25    10    11    1
    26    10    27    1
    27    27    28    1
    28    10    12    1
    29    20    13   ar
    30     6     1   ar
    31    12     4    1
    32    16    21    1
    33    16    22    1
    34    19    23    1
    35    19    24    1
@<TRIPOS>MOLECULE
*****
 33 35 0 0 0
SMALL
GASTEIGER

@<TRIPOS>ATOM
      1 C          64.1344   91.0519   12.2307 C.ar    1  UNL1        0.0053
      2 C          63.5576   91.8639   11.1092 C.ar    1  UNL1        0.0033
      3 C          62.6302   91.2235   10.1194 C.ar    1  UNL1        0.0382
      4 C          62.2796   89.7710   10.2512 C.ar    1  UNL1        0.1524
      5 C          62.8564   88.9590   11.3727 C.ar    1  UNL1        0.0881
      6 C          63.7838   89.5994   12.3624 C.ar    1  UNL1        0.0181
      7 N          62.5058   87.5065   11.5044 N.am    1  UNL1       -0.2531
      8 C          61.5784   86.8660   10.5146 C.2     1  UNL1        0.2656
      9 O          61.2278   85.4135   10.6464 O.2     1  UNL1       -0.2708
     10 C          61.0015   87.6781    9.3930 C.3     1  UNL1        0.2011
     11 C          60.2072   88.0279    8.1697 C.3     1  UNL1        0.0532
     12 O          61.3522   89.1306    9.2613 O.3     1  UNL1       -0.4727
     13 C          66.3153   92.3663   12.7466 C.ar    1  UNL1        0.0645
     14 N          67.2427   93.0067   13.7364 N.ar    1  UNL1       -0.2183
     15 C          66.9168   92.9732   15.2002 C.ar    1  UNL1        0.2145
     16 N          67.8442   93.6136   16.1900 N.pl3   1  UNL1       -0.3274
     17 N          65.6634   92.2991   15.6742 N.ar    1  UNL1       -0.1995
     18 C          64.7359   91.6587   14.6843 C.ar    1  UNL1        0.1293
     19 N          63.4825   90.9847   15.1583 N.pl3   1  UNL1       -0.3425
     20 C          65.0619   91.6923   13.2206 C.ar    1  UNL1        0.0449
     21 H          68.6669   94.0559   15.8789 H       1  UNL1        0.1452
     22 H          67.6303   93.5915   17.1507 H       1  UNL1        0.1452
     23 H          63.2685   90.9626   16.1190 H       1  UNL1        0.1437
     24 H          62.8738   90.5644   14.5086 H       1  UNL1        0.1437
     25 C          66.6659   93.7084   10.5497 C.3     1  UNL1        0.0067
     26 C          66.6413   92.3999   11.2828 C.3     1  UNL1        0.0460
     27 C          60.3751   86.3471    9.0999 C.3     1  UNL1        0.0491
     28 C          59.9019   86.0302    7.7122 C.3     1  UNL1        0.0042
     29 C          63.0826   86.6944   12.6259 C.3     1  UNL1        0.1010
     30 C          63.1004   85.1972   12.5358 C.3     1  UNL1        0.0539
     31 C          63.3091   84.3739   13.7722 C.3     1  UNL1        0.1440
     32 O          63.2629   82.8767   13.6929 O.3     1  UNL1       -0.3510
     33 C          62.1010   82.1301   14.2782 C.3     1  UNL1        0.1741
@<TRIPOS>BOND
     1    25    26    1
     2    26    13    1
     3    13    14   ar
     4    14    15   ar
     5    15    16    1
     6    15    17   ar
     7    17    18   ar
     8    18    19    1
     9    18    20   ar
    10    20     1    1
    11     1     2   ar
    12     2     3   ar
    13     3     4   ar
    14     4     5   ar
    15     5     6   ar
    16     5     7    1
    17     7    29    1
    18    29    30    1
    19    30    31    1
    20    31    32    1
    21    32    33    1
    22     7     8   am
    23     8     9    2
    24     8    10    1
    25    10    11    1
    26    10    27    1
    27    27    28    1
    28    10    12    1
    29    20    13   ar
    30     6     1   ar
    31    12     4    1
    32    16    21    1
    33    16    22    1
    34    19    23    1
    35    19    24    1
@<TRIPOS>MOLECULE
*****
 33 35 0 0 0
SMALL
GASTEIGER

@<TRIPOS>ATOM
      1 C          62.7813   89.0826   12.1291 C.ar    1  UNL1        0.0053
      2 C          62.9288   88.5313   13.5162 C.ar    1  UNL1        0.0033
      3 C          63.8069   89.2300   14.5115 C.ar    1  UNL1        0.0382
      4 C          64.5374   90.4802   14.1197 C.ar    1  UNL1        0.1524
      5 C          64.3898   91.0315   12.7326 C.ar    1  UNL1        0.0881
      6 C          63.5118   90.3328   11.7373 C.ar    1  UNL1        0.0181
      7 N          65.1204   92.2817   12.3407 N.am    1  UNL1       -0.2531
      8 C          65.9984   92.9804   13.3360 C.2     1  UNL1        0.2656
      9 O          66.7289   94.2306   12.9442 O.2     1  UNL1       -0.2708
     10 C          66.1460   92.4291   14.7233 C.3     1  UNL1        0.2011
     11 C          66.6023   92.2958   16.1459 C.3     1  UNL1        0.0532
     12 O          65.4155   91.1789   15.1151 O.3     1  UNL1       -0.4727
     13 C          60.8108   89.1394   10.4367 C.ar    1  UNL1        0.0645
     14 N          59.9327   88.4408    9.4414 N.ar    1  UNL1       -0.2183
     15 C          60.1470   86.9864    9.1430 C.ar    1  UNL1        0.2145
     16 N          59.2689   86.2877    8.1477 N.pl3   1  UNL1       -0.3274
     17 N          61.2393   86.2308    9.8400 N.ar    1  UNL1       -0.1995
     18 C          62.1175   86.9296   10.8354 C.ar    1  UNL1        0.1293
     19 N          63.2098   86.1740   11.5324 N.pl3   1  UNL1       -0.3425
     20 C          61.9032   88.3838   11.1337 C.ar    1  UNL1        0.0449
     21 H          58.5519   86.7836    7.6902 H       1  UNL1        0.1452
     22 H          59.4095   85.3332    7.9518 H       1  UNL1        0.1452
     23 H          63.3505   85.2194   11.3365 H       1  UNL1        0.1437
     24 H          63.7861   86.6326   12.1856 H       1  UNL1        0.1437
     25 C          59.3453   91.0401   11.4317 C.3     1  UNL1        0.0067
     26 C          60.5965   90.5938   10.7351 C.3     1  UNL1        0.0460
     27 C          67.0350   93.6329   14.8255 C.3     1  UNL1        0.0491
     28 C          68.2177   93.6157   15.7479 C.3     1  UNL1        0.0042
     29 C          64.9728   92.8330   10.9536 C.3     1  UNL1        0.1010
     30 C          66.1082   92.7259    9.9792 C.3     1  UNL1        0.0539
     31 C          66.8995   93.9464    9.6126 C.3     1  UNL1        0.1440
     32 O          68.3971   93.8807    9.5578 O.3     1  UNL1       -0.3510
     33 C          69.0791   92.5899    9.2135 C.3     1  UNL1        0.1741
@<TRIPOS>BOND
     1    25    26    1
     2    26    13    1
     3    13    14   ar
     4    14    15   ar
     5    15    16    1
     6    15    17   ar
     7    17    18   ar
     8    18    19    1
     9    18    20   ar
    10    20     1    1
    11     1     2   ar
    12     2     3   ar
    13     3     4   ar
    14     4     5   ar
    15     5     6   ar
    16     5     7    1
    17     7    29    1
    18    29    30    1
    19    30    31    1
    20    31    32    1
    21    32    33    1
    22     7     8   am
    23     8     9    2
    24     8    10    1
    25    10    11    1
    26    10    27    1
    27    27    28    1
    28    10    12    1
    29    20    13   ar
    30     6     1   ar
    31    12     4    1
    32    16    21    1
    33    16    22    1
    34    19    23    1
    35    19    24    1
@<TRIPOS>MOLECULE
*****
 33 35 0 0 0
SMALL
GASTEIGER

@<TRIPOS>ATOM
      1 C          64.1828   91.0335   12.2221 C.ar    1  UNL1        0.0053
      2 C          63.6209   91.8563   11.1009 C.ar    1  UNL1        0.0033
      3 C          62.6807   91.2336   10.1118 C.ar    1  UNL1        0.0382
      4 C          62.3025   89.7881   10.2440 C.ar    1  UNL1        0.1524
      5 C          62.8643   88.9653   11.3652 C.ar    1  UNL1        0.0881
      6 C          63.8045   89.5880   12.3543 C.ar    1  UNL1        0.0181
      7 N          62.4860   87.5199   11.4974 N.am    1  UNL1       -0.2531
      8 C          61.5459   86.8972   10.5083 C.2     1  UNL1        0.2656
      9 O          61.1676   85.4517   10.6405 O.2     1  UNL1       -0.2708
     10 C          60.9839   87.7200    9.3870 C.3     1  UNL1        0.2011
     11 C          60.1956   88.0848    8.1641 C.3     1  UNL1        0.0532
     12 O          61.3622   89.1655    9.2548 O.3     1  UNL1       -0.4727
     13 C          64.8878   91.4812   14.6823 C.ar    1  UNL1        0.0645
     14 N          65.8279   92.1038   15.6714 N.ar    1  UNL1       -0.2183
     15 C          67.0034   92.9015   15.1895 C.ar    1  UNL1        0.2145
     16 N          67.9435   93.5241   16.1786 N.pl3   1  UNL1       -0.3274
     17 N          67.2386   93.0764   13.7184 N.ar    1  UNL1       -0.1995
     18 C          66.2984   92.4538   12.7293 C.ar    1  UNL1        0.1293
     19 N          66.5336   92.6287   11.2582 N.pl3   1  UNL1       -0.3425
     20 C          65.1230   91.6562   13.2112 C.ar    1  UNL1        0.0449
     21 H          67.7891   93.4092   17.1442 H       1  UNL1        0.1452
     22 H          68.7150   94.0476   15.8623 H       1  UNL1        0.1452
     23 H          67.3051   93.1522   10.9419 H       1  UNL1        0.1437
     24 H          65.9165   92.2201   10.6090 H       1  UNL1        0.1437
     25 C          63.4987   90.4762   16.6344 C.3     1  UNL1        0.0067
     26 C          63.7123   90.6836   15.1642 C.3     1  UNL1        0.0460
     27 C          60.3319   86.4012    9.0945 C.3     1  UNL1        0.0491
     28 C          59.8515   86.0934    7.7073 C.3     1  UNL1        0.0042
     29 C          63.0479   86.6971   12.6186 C.3     1  UNL1        0.1010
     30 C          63.2883   85.2292   12.4244 C.3     1  UNL1        0.0539
     31 C          62.9571   84.2631   13.5230 C.3     1  UNL1        0.1440
     32 O          63.9250   83.1748   13.8819 O.3     1  UNL1       -0.3510
     33 C          63.5164   81.7369   13.7582 C.3     1  UNL1        0.1741
@<TRIPOS>BOND
     1    25    26    1
     2    26    13    1
     3    13    14   ar
     4    14    15   ar
     5    15    16    1
     6    15    17   ar
     7    17    18   ar
     8    18    19    1
     9    18    20   ar
    10    20     1    1
    11     1     2   ar
    12     2     3   ar
    13     3     4   ar
    14     4     5   ar
    15     5     6   ar
    16     5     7    1
    17     7    29    1
    18    29    30    1
    19    30    31    1
    20    31    32    1
    21    32    33    1
    22     7     8   am
    23     8     9    2
    24     8    10    1
    25    10    11    1
    26    10    27    1
    27    27    28    1
    28    10    12    1
    29    20    13   ar
    30     6     1   ar
    31    12     4    1
    32    16    21    1
    33    16    22    1
    34    19    23    1
    35    19    24    1
@<TRIPOS>MOLECULE
*****
 33 35 0 0 0
SMALL
GASTEIGER

@<TRIPOS>ATOM
      1 C          62.5607   85.1622   12.2172 C.ar    1  UNL1        0.0053
      2 C          61.9335   85.4451   10.8844 C.ar    1  UNL1        0.0033
      3 C          61.9520   86.8377   10.3272 C.ar    1  UNL1        0.0382
      4 C          62.5977   87.9473   11.1030 C.ar    1  UNL1        0.1524
      5 C          63.2249   87.6644   12.4359 C.ar    1  UNL1        0.0881
      6 C          63.2063   86.2719   12.9930 C.ar    1  UNL1        0.0181
      7 N          63.8705   88.7741   13.2116 N.am    1  UNL1       -0.2531
      8 C          63.8890   90.1666   12.6545 C.2     1  UNL1        0.2656
      9 O          64.5347   91.2763   13.4302 O.2     1  UNL1       -0.2708
     10 C          63.2619   90.4496   11.3215 C.3     1  UNL1        0.2011
     11 C          62.8037   91.2095   10.1121 C.3     1  UNL1        0.0532
     12 O          62.6162   89.3399   10.5458 O.3     1  UNL1       -0.4727
     13 C          62.8717   82.6036   11.8902 C.ar    1  UNL1        0.0645
     14 N          62.8532   81.2111   12.4474 N.ar    1  UNL1       -0.2183
     15 C          62.5052   80.9845   13.8888 C.ar    1  UNL1        0.2145
     16 N          62.4867   79.5920   14.4459 N.pl3   1  UNL1       -0.3274
     17 N          62.1756   82.1505   14.7730 N.ar    1  UNL1       -0.1995
     18 C          62.1941   83.5431   14.2158 C.ar    1  UNL1        0.1293
     19 N          61.8646   84.7091   15.1000 N.pl3   1  UNL1       -0.3425
     20 C          62.5422   83.7696   12.7745 C.ar    1  UNL1        0.0449
     21 H          62.7030   78.8267   13.8656 H       1  UNL1        0.1452
     22 H          62.2583   79.4432   15.3919 H       1  UNL1        0.1452
     23 H          61.6361   84.5604   16.0460 H       1  UNL1        0.1437
     24 H          61.8767   85.6231   14.7343 H       1  UNL1        0.1437
     25 C          64.6548   82.9789   10.0382 C.3     1  UNL1        0.0067
     26 C          63.2198   82.8302   10.4488 C.3     1  UNL1        0.0460
     27 C          63.7484   91.8231   11.6772 C.3     1  UNL1        0.0491
     28 C          64.7084   92.5365   10.7720 C.3     1  UNL1        0.0042
     29 C          64.4977   88.4912   14.5445 C.3     1  UNL1        0.1010
     30 C          63.6363   88.1200   15.7150 C.3     1  UNL1        0.0539
     31 C          63.1804   89.1777   16.6761 C.3     1  UNL1        0.1440
     32 O          63.0738   90.6045   16.2258 O.3     1  UNL1       -0.3510
     33 C          64.0966   91.6088   16.6677 C.3     1  UNL1        0.1741
@<TRIPOS>BOND
     1    25    26    1
     2    26    13    1
     3    13    14   ar
     4    14    15   ar
     5    15    16    1
     6    15    17   ar
     7    17    18   ar
     8    18    19    1
     9    18    20   ar
    10    20     1    1
    11     1     2   ar
    12     2     3   ar
    13     3     4   ar
    14     4     5   ar
    15     5     6   ar
    16     5     7    1
    17     7    29    1
    18    29    30    1
    19    30    31    1
    20    31    32    1
    21    32    33    1
    22     7     8   am
    23     8     9    2
    24     8    10    1
    25    10    11    1
    26    10    27    1
    27    27    28    1
    28    10    12    1
    29    20    13   ar
    30     6     1   ar
    31    12     4    1
    32    16    21    1
    33    16    22    1
    34    19    23    1
    35    19    24    1
@<TRIPOS>MOLECULE
*****
 33 35 0 0 0
SMALL
GASTEIGER

@<TRIPOS>ATOM
      1 C          62.6773   85.0952   12.1384 C.ar    1  UNL1        0.0053
      2 C          62.0377   85.3737   10.8105 C.ar    1  UNL1        0.0033
      3 C          62.0095   86.7728   10.2705 C.ar    1  UNL1        0.0382
      4 C          62.6209   87.8933   11.0583 C.ar    1  UNL1        0.1524
      5 C          63.2605   87.6148   12.3861 C.ar    1  UNL1        0.0881
      6 C          63.2888   86.2157   12.9262 C.ar    1  UNL1        0.0181
      7 N          63.8720   88.7353   13.1739 N.am    1  UNL1       -0.2531
      8 C          63.8438   90.1344   12.6339 C.2     1  UNL1        0.2656
      9 O          64.4552   91.2549   13.4217 O.2     1  UNL1       -0.2708
     10 C          63.2041   90.4130   11.3060 C.3     1  UNL1        0.2011
     11 C          62.7181   91.1723   10.1071 C.3     1  UNL1        0.0532
     12 O          62.5926   89.2925   10.5182 O.3     1  UNL1       -0.4727
     13 C          62.2826   83.4293   14.0927 C.ar    1  UNL1        0.0645
     14 N          62.3109   82.0303   14.6328 N.ar    1  UNL1       -0.2183
     15 C          62.7621   80.8978   13.7587 C.ar    1  UNL1        0.2145
     16 N          62.7903   79.4987   14.2988 N.pl3   1  UNL1       -0.3274
     17 N          63.1850   81.1645   12.3445 N.ar    1  UNL1       -0.1995
     18 C          63.1568   82.5636   11.8044 C.ar    1  UNL1        0.1293
     19 N          63.5797   82.8303   10.3902 N.pl3   1  UNL1       -0.3425
     20 C          62.7056   83.6960   12.6785 C.ar    1  UNL1        0.0449
     21 H          62.5127   79.3237   15.2270 H       1  UNL1        0.1452
     22 H          63.0864   78.7555   13.7251 H       1  UNL1        0.1452
     23 H          63.8759   82.0870    9.8165 H       1  UNL1        0.1437
     24 H          63.5612   83.7486   10.0357 H       1  UNL1        0.1437
     25 C          62.4953   84.7976   16.2910 C.3     1  UNL1        0.0067
     26 C          61.8314   84.5618   14.9668 C.3     1  UNL1        0.0460
     27 C          63.6467   91.7972   11.6774 C.3     1  UNL1        0.0491
     28 C          64.6071   92.5393   10.7960 C.3     1  UNL1        0.0042
     29 C          64.5116   88.4567   14.5018 C.3     1  UNL1        0.1010
     30 C          63.6596   88.1112   15.6870 C.3     1  UNL1        0.0539
     31 C          63.1597   89.1969   16.5933 C.3     1  UNL1        0.1440
     32 O          63.1235   90.6174   16.1129 O.3     1  UNL1       -0.3510
     33 C          64.1387   91.6033   16.6099 C.3     1  UNL1        0.1741
@<TRIPOS>BOND
     1    25    26    1
     2    26    13    1
     3    13    14   ar
     4    14    15   ar
     5    15    16    1
     6    15    17   ar
     7    17    18   ar
     8    18    19    1
     9    18    20   ar
    10    20     1    1
    11     1     2   ar
    12     2     3   ar
    13     3     4   ar
    14     4     5   ar
    15     5     6   ar
    16     5     7    1
    17     7    29    1
    18    29    30    1
    19    30    31    1
    20    31    32    1
    21    32    33    1
    22     7     8   am
    23     8     9    2
    24     8    10    1
    25    10    11    1
    26    10    27    1
    27    27    28    1
    28    10    12    1
    29    20    13   ar
    30     6     1   ar
    31    12     4    1
    32    16    21    1
    33    16    22    1
    34    19    23    1
    35    19    24    1
@<TRIPOS>MOLECULE
*****
 33 35 0 0 0
SMALL
GASTEIGER

@<TRIPOS>ATOM
      1 C          63.0864   85.1987   12.8862 C.ar    1  UNL1        0.0053
      2 C          64.1196   84.2488   12.3570 C.ar    1  UNL1        0.0033
      3 C          64.1628   83.9274   10.8925 C.ar    1  UNL1        0.0382
      4 C          63.1728   84.5560    9.9572 C.ar    1  UNL1        0.1524
      5 C          62.1396   85.5059   10.4863 C.ar    1  UNL1        0.0881
      6 C          62.0964   85.8273   11.9508 C.ar    1  UNL1        0.0181
      7 N          61.1497   86.1345    9.5510 N.am    1  UNL1       -0.2531
      8 C          61.1929   85.8131    8.0865 C.2     1  UNL1        0.2656
      9 O          60.2030   86.4417    7.1511 O.2     1  UNL1       -0.2708
     10 C          62.2262   84.8631    7.5573 C.3     1  UNL1        0.2011
     11 C          63.0101   84.0311    6.5861 C.3     1  UNL1        0.0532
     12 O          63.2161   84.2346    8.4926 O.3     1  UNL1       -0.4727
     13 C          63.5705   86.8341   14.8461 C.ar    1  UNL1        0.0645
     14 N          63.5273   87.1555   16.3106 N.ar    1  UNL1       -0.2183
     15 C          62.9565   86.1630   17.2798 C.ar    1  UNL1        0.2145
     16 N          62.9133   86.4845   18.7443 N.pl3   1  UNL1       -0.3274
     17 N          62.4291   84.8491   16.7844 N.ar    1  UNL1       -0.1995
     18 C          62.4724   84.5277   15.3199 C.ar    1  UNL1        0.1293
     19 N          61.9449   83.2137   14.8245 N.pl3   1  UNL1       -0.3425
     20 C          63.0431   85.5201   14.3507 C.ar    1  UNL1        0.0449
     21 H          63.2595   87.3468   19.0694 H       1  UNL1        0.1452
     22 H          62.5387   85.8331   19.3804 H       1  UNL1        0.1452
     23 H          61.5703   82.5623   15.4606 H       1  UNL1        0.1437
     24 H          61.9733   83.0028   13.8633 H       1  UNL1        0.1437
     25 C          64.4242   89.2311   14.3211 C.3     1  UNL1        0.0067
     26 C          64.1413   87.8266   13.8769 C.3     1  UNL1        0.0460
     27 C          61.5085   85.2028    6.2847 C.3     1  UNL1        0.0491
     28 C          61.7194   84.3654    5.0582 C.3     1  UNL1        0.0042
     29 C          60.1165   87.0845   10.0801 C.3     1  UNL1        0.1010
     30 C          60.4308   88.5467   10.1948 C.3     1  UNL1        0.0539
     31 C          60.2384   89.2548   11.5031 C.3     1  UNL1        0.1440
     32 O          61.4286   89.7501   12.2699 O.3     1  UNL1       -0.3510
     33 C          62.5078   90.5179   11.5660 C.3     1  UNL1        0.1741
@<TRIPOS>BOND
     1    25    26    1
     2    26    13    1
     3    13    14   ar
     4    14    15   ar
     5    15    16    1
     6    15    17   ar
     7    17    18   ar
     8    18    19    1
     9    18    20   ar
    10    20     1    1
    11     1     2   ar
    12     2     3   ar
    13     3     4   ar
    14     4     5   ar
    15     5     6   ar
    16     5     7    1
    17     7    29    1
    18    29    30    1
    19    30    31    1
    20    31    32    1
    21    32    33    1
    22     7     8   am
    23     8     9    2
    24     8    10    1
    25    10    11    1
    26    10    27    1
    27    27    28    1
    28    10    12    1
    29    20    13   ar
    30     6     1   ar
    31    12     4    1
    32    16    21    1
    33    16    22    1
    34    19    23    1
    35    19    24    1
