@<TRIPOS>MOLECULE
*****
 20 21 0 0 0
SMALL
GASTEIGER

@<TRIPOS>ATOM
      1 C          63.8746   85.2173   14.5055 C.3     1  UNL1        0.0000
      2 B          63.8037   86.6152   13.9663 B       1  UNL1        0.0000
      3 C          64.3989   87.7506   14.7451 C.3     1  UNL1        0.0000
      4 C          64.3280   89.1485   14.2058 C.2     1  UNL1        0.0000
      5 C          63.6619   89.4110   12.8878 C.ar    1  UNL1        0.0000
      6 C          63.0667   88.2756   12.1089 C.ar    1  UNL1        0.0000
      7 C          62.4005   88.5381   10.7908 C.ar    1  UNL1        0.0000
      8 C          62.3296   89.9361   10.2516 C.ar    1  UNL1        0.0000
      9 C          62.9249   91.0715   11.0304 C.ar    1  UNL1        0.0000
     10 C          63.5910   90.8089   12.3485 C.ar    1  UNL1        0.0000
     11 N          63.1376   86.8777   12.6482 N.2     1  UNL1        0.0000
     12 O          64.1862   91.9443   13.1273 O.3     1  UNL1        0.0000
     13 C          65.5981   92.3763   12.8630 C.3     1  UNL1        0.0000
     14 C          65.8727   93.4950   11.9020 C.3     1  UNL1        0.0000
     15 O          66.0247   94.8986   12.4086 O.3     1  UNL1        0.0000
     16 H          65.9177   94.9077   13.3727 H       1  UNL1        0.0000
     17 C          65.9952   93.2099   10.4345 C.3     1  UNL1        0.0000
     18 N          67.3327   93.3017    9.7618 N.3     1  UNL1        0.0000
     19 C          67.7509   94.5786    9.0950 C.3     1  UNL1        0.0000
     20 C          68.2522   92.1165    9.7558 C.3     1  UNL1        0.0000
@<TRIPOS>BOND
     1     1     2    1
     2     2     3    1
     3     3     4    1
     4     4     5    2
     5     5     6   ar
     6     6     7   ar
     7     7     8   ar
     8     8     9   ar
     9     9    10   ar
    10    10    12    1
    11    12    13    1
    12    13    14    1
    13    14    15    1
    14    14    17    1
    15    17    18    1
    16    18    19    1
    17    18    20    1
    18     6    11    2
    19    11     2    1
    20    10     5   ar
    21    15    16    1
@<TRIPOS>MOLECULE
*****
 20 21 0 0 0
SMALL
GASTEIGER

@<TRIPOS>ATOM
      1 C          63.6697   85.0786   14.3895 C.3     1  UNL1        0.0000
      2 B          63.6425   86.4724   13.8359 B       1  UNL1        0.0000
      3 C          64.3117   87.5888   14.5815 C.3     1  UNL1        0.0000
      4 C          64.2844   88.9826   14.0279 C.2     1  UNL1        0.0000
      5 C          63.5881   89.2601   12.7287 C.ar    1  UNL1        0.0000
      6 C          62.9189   88.1438   11.9831 C.ar    1  UNL1        0.0000
      7 C          62.2224   88.4212   10.6838 C.ar    1  UNL1        0.0000
      8 C          62.1952   89.8151   10.1302 C.ar    1  UNL1        0.0000
      9 C          62.8645   90.9314   10.8759 C.ar    1  UNL1        0.0000
     10 C          63.5609   90.6539   12.1751 C.ar    1  UNL1        0.0000
     11 N          62.9461   86.7499   12.5367 N.2     1  UNL1        0.0000
     12 O          64.2300   91.7703   12.9206 O.3     1  UNL1        0.0000
     13 C          65.1991   92.6700   12.2126 C.3     1  UNL1        0.0000
     14 C          66.5495   92.9356   12.8093 C.3     1  UNL1        0.0000
     15 O          67.7680   92.2820   12.2281 O.3     1  UNL1        0.0000
     16 H          67.5090   91.7241   11.4780 H       1  UNL1        0.0000
     17 C          66.6812   93.8548   13.9874 C.3     1  UNL1        0.0000
     18 N          67.0741   93.3057   15.3268 N.3     1  UNL1        0.0000
     19 C          68.4379   93.5898   15.8831 C.3     1  UNL1        0.0000
     20 C          66.1032   92.4726   16.1100 C.3     1  UNL1        0.0000
@<TRIPOS>BOND
     1     1     2    1
     2     2     3    1
     3     3     4    1
     4     4     5    2
     5     5     6   ar
     6     6     7   ar
     7     7     8   ar
     8     8     9   ar
     9     9    10   ar
    10    10    12    1
    11    12    13    1
    12    13    14    1
    13    14    15    1
    14    14    17    1
    15    17    18    1
    16    18    19    1
    17    18    20    1
    18     6    11    2
    19    11     2    1
    20    10     5   ar
    21    15    16    1
@<TRIPOS>MOLECULE
*****
 20 21 0 0 0
SMALL
GASTEIGER

@<TRIPOS>ATOM
      1 C          61.3477   87.5069    9.3814 C.3     1  UNL1        0.0000
      2 B          62.0948   88.3778   10.3476 B       1  UNL1        0.0000
      3 C          62.3477   89.8189   10.0174 C.3     1  UNL1        0.0000
      4 C          63.0947   90.6899   10.9835 C.2     1  UNL1        0.0000
      5 C          63.5889   90.1196   12.2799 C.ar    1  UNL1        0.0000
      6 C          63.3360   88.6785   12.6101 C.ar    1  UNL1        0.0000
      7 C          63.8301   88.1082   13.9065 C.ar    1  UNL1        0.0000
      8 C          64.5772   88.9791   14.8727 C.ar    1  UNL1        0.0000
      9 C          64.8300   90.4203   14.5424 C.ar    1  UNL1        0.0000
     10 C          64.3359   90.9906   13.2460 C.ar    1  UNL1        0.0000
     11 N          62.5889   87.8076   11.6440 N.2     1  UNL1        0.0000
     12 O          64.5888   92.4317   12.9158 O.3     1  UNL1        0.0000
     13 C          65.9859   92.9763   12.9557 C.3     1  UNL1        0.0000
     14 C          66.9730   92.5873   11.8953 C.3     1  UNL1        0.0000
     15 O          68.2908   91.9845   12.2822 O.3     1  UNL1        0.0000
     16 H          68.3439   91.9162   13.2484 H       1  UNL1        0.0000
     17 C          66.6422   92.8013   10.4479 C.3     1  UNL1        0.0000
     18 N          67.6992   93.2864    9.5007 N.3     1  UNL1        0.0000
     19 C          67.7299   94.7274    9.0854 C.3     1  UNL1        0.0000
     20 C          68.7257   92.3305    8.9689 C.3     1  UNL1        0.0000
@<TRIPOS>BOND
     1     1     2    1
     2     2     3    1
     3     3     4    1
     4     4     5    2
     5     5     6   ar
     6     6     7   ar
     7     7     8   ar
     8     8     9   ar
     9     9    10   ar
    10    10    12    1
    11    12    13    1
    12    13    14    1
    13    14    15    1
    14    14    17    1
    15    17    18    1
    16    18    19    1
    17    18    20    1
    18     6    11    2
    19    11     2    1
    20    10     5   ar
    21    15    16    1
@<TRIPOS>MOLECULE
*****
 20 21 0 0 0
SMALL
GASTEIGER

@<TRIPOS>ATOM
      1 C          59.5396   88.2622    7.5017 C.3     1  UNL1        0.0000
      2 B          60.3070   87.4598    8.5102 B       1  UNL1        0.0000
      3 C          60.0882   87.6908    9.9760 C.3     1  UNL1        0.0000
      4 C          60.8556   86.8883   10.9845 C.2     1  UNL1        0.0000
      5 C          61.8420   85.8550   10.5272 C.ar    1  UNL1        0.0000
      6 C          62.0609   85.6240    9.0614 C.ar    1  UNL1        0.0000
      7 C          63.0473   84.5906    8.6040 C.ar    1  UNL1        0.0000
      8 C          63.8148   83.7882    9.6125 C.ar    1  UNL1        0.0000
      9 C          63.5958   84.0192   11.0784 C.ar    1  UNL1        0.0000
     10 C          62.6095   85.0525   11.5357 C.ar    1  UNL1        0.0000
     11 N          61.2934   86.4264    8.0529 N.2     1  UNL1        0.0000
     12 O          62.3906   85.2835   13.0015 O.3     1  UNL1        0.0000
     13 C          63.5207   85.0889   13.9685 C.3     1  UNL1        0.0000
     14 C          63.5619   83.8672   14.8379 C.3     1  UNL1        0.0000
     15 O          64.8007   83.5445   15.6198 O.3     1  UNL1        0.0000
     16 H          65.4748   84.2214   15.4514 H       1  UNL1        0.0000
     17 C          62.3643   82.9683   14.9256 C.3     1  UNL1        0.0000
     18 N          62.3448   81.6696   14.1754 N.3     1  UNL1        0.0000
     19 C          63.5827   81.1870   13.4791 C.3     1  UNL1        0.0000
     20 C          61.0875   80.8533   14.1215 C.3     1  UNL1        0.0000
@<TRIPOS>BOND
     1     1     2    1
     2     2     3    1
     3     3     4    1
     4     4     5    2
     5     5     6   ar
     6     6     7   ar
     7     7     8   ar
     8     8     9   ar
     9     9    10   ar
    10    10    12    1
    11    12    13    1
    12    13    14    1
    13    14    15    1
    14    14    17    1
    15    17    18    1
    16    18    19    1
    17    18    20    1
    18     6    11    2
    19    11     2    1
    20    10     5   ar
    21    15    16    1
@<TRIPOS>MOLECULE
*****
 20 21 0 0 0
SMALL
GASTEIGER

@<TRIPOS>ATOM
      1 C          59.4853   88.3092    7.6564 C.3     1  UNL1        0.0000
      2 B          60.3819   88.1182    8.8437 B       1  UNL1        0.0000
      3 C          60.6316   86.7401    9.3810 C.3     1  UNL1        0.0000
      4 C          61.5281   86.5491   10.5683 C.2     1  UNL1        0.0000
      5 C          62.1749   87.7361   11.2184 C.ar    1  UNL1        0.0000
      6 C          61.9252   89.1141   10.6812 C.ar    1  UNL1        0.0000
      7 C          62.5720   90.3011   11.3313 C.ar    1  UNL1        0.0000
      8 C          63.4685   90.1101   12.5186 C.ar    1  UNL1        0.0000
      9 C          63.7182   88.7320   13.0558 C.ar    1  UNL1        0.0000
     10 C          63.0714   87.5450   12.4057 C.ar    1  UNL1        0.0000
     11 N          61.0287   89.3051    9.4938 N.2     1  UNL1        0.0000
     12 O          63.3211   86.1670   12.9429 O.3     1  UNL1        0.0000
     13 C          64.0090   85.9903   14.2641 C.3     1  UNL1        0.0000
     14 C          64.7653   84.7275   14.5530 C.3     1  UNL1        0.0000
     15 O          66.2577   84.6965   14.4049 O.3     1  UNL1        0.0000
     16 H          66.5722   85.5679   14.1175 H       1  UNL1        0.0000
     17 C          64.0293   83.4957   14.9899 C.3     1  UNL1        0.0000
     18 N          63.4374   82.5729   13.9662 N.3     1  UNL1        0.0000
     19 C          62.1192   81.9074   14.2293 C.3     1  UNL1        0.0000
     20 C          64.1638   82.3156   12.6792 C.3     1  UNL1        0.0000
@<TRIPOS>BOND
     1     1     2    1
     2     2     3    1
     3     3     4    1
     4     4     5    2
     5     5     6   ar
     6     6     7   ar
     7     7     8   ar
     8     8     9   ar
     9     9    10   ar
    10    10    12    1
    11    12    13    1
    12    13    14    1
    13    14    15    1
    14    14    17    1
    15    17    18    1
    16    18    19    1
    17    18    20    1
    18     6    11    2
    19    11     2    1
    20    10     5   ar
    21    15    16    1
@<TRIPOS>MOLECULE
*****
 20 21 0 0 0
SMALL
GASTEIGER

@<TRIPOS>ATOM
      1 C          59.0271   89.1068    6.6795 C.3     1  UNL1        0.0000
      2 B          59.8008   88.4734    7.7975 B       1  UNL1        0.0000
      3 C          59.7863   86.9834    7.9696 C.3     1  UNL1        0.0000
      4 C          60.5600   86.3499    9.0876 C.2     1  UNL1        0.0000
      5 C          61.3483   87.2064   10.0336 C.ar    1  UNL1        0.0000
      6 C          61.3629   88.6964    9.8615 C.ar    1  UNL1        0.0000
      7 C          62.1512   89.5530   10.8075 C.ar    1  UNL1        0.0000
      8 C          62.9250   88.9195   11.9256 C.ar    1  UNL1        0.0000
      9 C          62.9104   87.4295   12.0976 C.ar    1  UNL1        0.0000
     10 C          62.1221   86.5729   11.1516 C.ar    1  UNL1        0.0000
     11 N          60.5891   89.3299    8.7435 N.2     1  UNL1        0.0000
     12 O          62.1075   85.0829   11.3237 O.3     1  UNL1        0.0000
     13 C          63.2166   84.2510   10.7513 C.3     1  UNL1        0.0000
     14 C          63.6284   82.9793   11.4321 C.3     1  UNL1        0.0000
     15 O          65.0821   82.6306   11.5541 O.3     1  UNL1        0.0000
     16 H          65.6174   83.3280   11.1441 H       1  UNL1        0.0000
     17 C          62.5863   82.0563   11.9908 C.3     1  UNL1        0.0000
     18 N          62.2611   82.0907   13.4547 N.3     1  UNL1        0.0000
     19 C          61.3368   81.0656   14.0419 C.3     1  UNL1        0.0000
     20 C          62.8602   83.1502   14.3314 C.3     1  UNL1        0.0000
@<TRIPOS>BOND
     1     1     2    1
     2     2     3    1
     3     3     4    1
     4     4     5    2
     5     5     6   ar
     6     6     7   ar
     7     7     8   ar
     8     8     9   ar
     9     9    10   ar
    10    10    12    1
    11    12    13    1
    12    13    14    1
    13    14    15    1
    14    14    17    1
    15    17    18    1
    16    18    19    1
    17    18    20    1
    18     6    11    2
    19    11     2    1
    20    10     5   ar
    21    15    16    1
@<TRIPOS>MOLECULE
*****
 20 21 0 0 0
SMALL
GASTEIGER

@<TRIPOS>ATOM
      1 C          63.2240   89.4213   16.6550 C.3     1  UNL1        0.0000
      2 B          63.4047   89.9205   15.2521 B       1  UNL1        0.0000
      3 C          64.6186   90.7249   14.8928 C.3     1  UNL1        0.0000
      4 C          64.7993   91.2241   13.4898 C.2     1  UNL1        0.0000
      5 C          63.7660   90.9189   12.4463 C.ar    1  UNL1        0.0000
      6 C          62.5520   90.1145   12.8056 C.ar    1  UNL1        0.0000
      7 C          61.5186   89.8092   11.7621 C.ar    1  UNL1        0.0000
      8 C          61.6993   90.3084   10.3591 C.ar    1  UNL1        0.0000
      9 C          62.9133   91.1128    9.9998 C.ar    1  UNL1        0.0000
     10 C          63.9466   91.4180   11.0434 C.ar    1  UNL1        0.0000
     11 N          62.3714   89.6153   14.2086 N.2     1  UNL1        0.0000
     12 O          65.1606   92.2224   10.6840 O.3     1  UNL1        0.0000
     13 C          65.1004   93.7211   10.7049 C.3     1  UNL1        0.0000
     14 C          66.2414   94.5096   11.2765 C.3     1  UNL1        0.0000
     15 O          66.8503   94.1056   12.5865 O.3     1  UNL1        0.0000
     16 H          66.3927   93.3213   12.9275 H       1  UNL1        0.0000
     17 C          66.7733   95.7020   10.5381 C.3     1  UNL1        0.0000
     18 N          67.3911   95.5302    9.1821 N.3     1  UNL1        0.0000
     19 C          67.3372   96.6504    8.1860 C.3     1  UNL1        0.0000
     20 C          68.0627   94.2381    8.8222 C.3     1  UNL1        0.0000
@<TRIPOS>BOND
     1     1     2    1
     2     2     3    1
     3     3     4    1
     4     4     5    2
     5     5     6   ar
     6     6     7   ar
     7     7     8   ar
     8     8     9   ar
     9     9    10   ar
    10    10    12    1
    11    12    13    1
    12    13    14    1
    13    14    15    1
    14    14    17    1
    15    17    18    1
    16    18    19    1
    17    18    20    1
    18     6    11    2
    19    11     2    1
    20    10     5   ar
    21    15    16    1
@<TRIPOS>MOLECULE
*****
 20 21 0 0 0
SMALL
GASTEIGER

@<TRIPOS>ATOM
      1 C          62.8420   80.0206   13.5682 C.3     1  UNL1        0.0000
      2 B          62.9468   81.5000   13.3442 B       1  UNL1        0.0000
      3 C          62.4641   82.0997   12.0568 C.3     1  UNL1        0.0000
      4 C          62.5689   83.5791   11.8327 C.2     1  UNL1        0.0000
      5 C          63.1564   84.4590   12.8960 C.ar    1  UNL1        0.0000
      6 C          63.6391   83.8593   14.1834 C.ar    1  UNL1        0.0000
      7 C          64.2266   84.7392   15.2468 C.ar    1  UNL1        0.0000
      8 C          64.3315   86.2186   15.0228 C.ar    1  UNL1        0.0000
      9 C          63.8487   86.8183   13.7353 C.ar    1  UNL1        0.0000
     10 C          63.2613   85.9384   12.6720 C.ar    1  UNL1        0.0000
     11 N          63.5343   82.3799   14.4075 N.2     1  UNL1        0.0000
     12 O          62.7786   86.5381   11.3846 O.3     1  UNL1        0.0000
     13 C          62.2907   87.9562   11.3542 C.3     1  UNL1        0.0000
     14 C          60.8972   88.2601   10.8892 C.3     1  UNL1        0.0000
     15 O          59.7311   88.0047   11.7974 O.3     1  UNL1        0.0000
     16 H          60.0502   87.6458   12.6402 H       1  UNL1        0.0000
     17 C          60.6700   88.8194    9.5161 C.3     1  UNL1        0.0000
     18 N          60.0976   87.9490    8.4370 N.3     1  UNL1        0.0000
     19 C          59.2885   88.5595    7.3312 C.3     1  UNL1        0.0000
     20 C          60.3342   86.4679    8.4636 C.3     1  UNL1        0.0000
@<TRIPOS>BOND
     1     1     2    1
     2     2     3    1
     3     3     4    1
     4     4     5    2
     5     5     6   ar
     6     6     7   ar
     7     7     8   ar
     8     8     9   ar
     9     9    10   ar
    10    10    12    1
    11    12    13    1
    12    13    14    1
    13    14    15    1
    14    14    17    1
    15    17    18    1
    16    18    19    1
    17    18    20    1
    18     6    11    2
    19    11     2    1
    20    10     5   ar
    21    15    16    1
@<TRIPOS>MOLECULE
*****
 20 21 0 0 0
SMALL
GASTEIGER

@<TRIPOS>ATOM
      1 C          63.1718   89.4370   16.6963 C.3     1  UNL1        0.0000
      2 B          63.3485   89.8933   15.2783 B       1  UNL1        0.0000
      3 C          64.6046   90.6044   14.8703 C.3     1  UNL1        0.0000
      4 C          64.7813   91.0607   13.4523 C.2     1  UNL1        0.0000
      5 C          63.7019   90.8058   12.4424 C.ar    1  UNL1        0.0000
      6 C          62.4458   90.0946   12.8505 C.ar    1  UNL1        0.0000
      7 C          61.3664   89.8397   11.8405 C.ar    1  UNL1        0.0000
      8 C          61.5431   90.2959   10.4226 C.ar    1  UNL1        0.0000
      9 C          62.7992   91.0071   10.0145 C.ar    1  UNL1        0.0000
     10 C          63.8786   91.2620   11.0244 C.ar    1  UNL1        0.0000
     11 N          62.2692   89.6384   14.2684 N.2     1  UNL1        0.0000
     12 O          65.1346   91.9731   10.6164 O.3     1  UNL1        0.0000
     13 C          65.2179   93.4673   10.7195 C.3     1  UNL1        0.0000
     14 C          66.3902   94.1078   11.4018 C.3     1  UNL1        0.0000
     15 O          67.5087   94.6856   10.5863 O.3     1  UNL1        0.0000
     16 H          67.3182   94.5626    9.6431 H       1  UNL1        0.0000
     17 C          66.4440   94.1705   12.8995 C.3     1  UNL1        0.0000
     18 N          67.3401   93.2366   13.6575 N.3     1  UNL1        0.0000
     19 C          68.0165   92.1029   12.9453 C.3     1  UNL1        0.0000
     20 C          67.5599   93.4363   15.1279 C.3     1  UNL1        0.0000
@<TRIPOS>BOND
     1     1     2    1
     2     2     3    1
     3     3     4    1
     4     4     5    2
     5     5     6   ar
     6     6     7   ar
     7     7     8   ar
     8     8     9   ar
     9     9    10   ar
    10    10    12    1
    11    12    13    1
    12    13    14    1
    13    14    15    1
    14    14    17    1
    15    17    18    1
    16    18    19    1
    17    18    20    1
    18     6    11    2
    19    11     2    1
    20    10     5   ar
    21    15    16    1
