@<TRIPOS>MOLECULE
*****
 31 34 0 0 0
SMALL
GASTEIGER

@<TRIPOS>ATOM
      1 N          63.1284   89.6919   11.6650 N.pl3   1  UNL1       -0.2736
      2 C          63.8116   90.9452   11.2041 C.3     1  UNL1        0.1082
      3 C          64.5373   91.5355   12.3767 C.3     1  UNL1        0.1548
      4 C          65.3815   92.7673   12.5180 C.2     1  UNL1        0.2922
      5 O          65.6162   93.6559   11.3325 O.2     1  UNL1       -0.2563
      6 N          65.9910   93.1106   13.8450 N.am    1  UNL1       -0.1448
      7 C          66.8352   94.3425   13.9863 C.3     1  UNL1        0.2159
      8 C          65.7563   92.2222   15.0304 C.2     1  UNL1        0.3732
      9 N          66.3657   92.5655   16.3574 N.pl3   1  UNL1       -0.2512
     10 N          64.9121   90.9904   14.8891 N.2     1  UNL1       -0.1017
     11 C          64.3026   90.6471   13.5623 C.3     1  UNL1        0.1953
     12 C          63.4319   89.5076   13.1224 C.3     1  UNL1        0.1381
     13 H          66.9198   93.3740   16.4502 H       1  UNL1        0.2412
     14 H          66.2117   91.9824   17.1355 H       1  UNL1        0.2412
     15 C          61.5075   86.3886   10.1780 C.ar    1  UNL1        0.2569
     16 N          62.3467   87.2981   11.0256 N.ar    1  UNL1       -0.1768
     17 C          62.2892   88.7825   10.8173 C.ar    1  UNL1        0.2226
     18 N          61.3923   89.3574    9.7614 N.ar    1  UNL1       -0.2155
     19 C          60.5530   88.4478    8.9137 C.ar    1  UNL1        0.0942
     20 C          59.6561   89.0227    7.8578 C.3     1  UNL1        0.0548
     21 C          60.6106   86.9635    9.1220 C.ar    1  UNL1        0.2065
     22 F          59.7713   86.0541    8.2744 F       1  UNL1       -0.1980
     23 C          62.6288   84.3105   11.2616 C.3     1  UNL1        0.2543
     24 O          61.5651   84.9043   10.3864 O.3     1  UNL1       -0.4545
     25 C          63.9814   89.6684   14.6527 C.ar    1  UNL1        0.0158
     26 C          64.3599   88.2249   14.5004 C.ar    1  UNL1        0.0013
     27 C          64.0388   87.2463   15.5908 C.ar    1  UNL1        0.0294
     28 C          63.3391   87.7111   16.8335 C.ar    1  UNL1        0.1401
     29 F          63.0180   86.7324   17.9241 F       1  UNL1       -0.2042
     30 C          62.9606   89.1546   16.9859 C.ar    1  UNL1        0.0294
     31 C          63.2818   90.1332   15.8954 C.ar    1  UNL1        0.0013
@<TRIPOS>BOND
     1    23    24    1
     2    24    15    1
     3    15    16   ar
     4    16    17   ar
     5    17     1    1
     6     1     2    1
     7     3     2    1
     8     3     4    1
     9     4     5    2
    10     4     6   am
    11     6     7    1
    12     6     8    1
    13     8     9    1
    14     8    10    2
    15    10    11    1
    16    11    25    1
    17    25    26   ar
    18    26    27   ar
    19    27    28   ar
    20    28    29    1
    21    28    30   ar
    22    30    31   ar
    23    11    12    1
    24    17    18   ar
    25    18    19   ar
    26    19    20    1
    27    19    21   ar
    28    21    22    1
    29    21    15   ar
    30    12     1    1
    31    11     3    1
    32    31    25   ar
    33     9    13    1
    34     9    14    1
@<TRIPOS>MOLECULE
*****
 31 34 0 0 0
SMALL
GASTEIGER

@<TRIPOS>ATOM
      1 N          63.0793   89.8134   11.5554 N.pl3   1  UNL1       -0.2736
      2 C          63.7690   91.0795   11.1414 C.3     1  UNL1        0.1082
      3 C          64.5335   91.5985   12.3229 C.3     1  UNL1        0.1548
      4 C          65.3993   92.8098   12.5047 C.2     1  UNL1        0.2922
      5 O          65.6165   93.7552   11.3605 O.2     1  UNL1       -0.2563
      6 N          66.0480   93.0759   13.8308 N.am    1  UNL1       -0.1448
      7 C          66.9139   94.2872   14.0126 C.3     1  UNL1        0.2159
      8 C          65.8309   92.1306   14.9750 C.2     1  UNL1        0.3732
      9 N          66.4796   92.3967   16.3012 N.pl3   1  UNL1       -0.2512
     10 N          64.9650   90.9193   14.7933 N.2     1  UNL1       -0.1017
     11 C          64.3163   90.6533   13.4672 C.3     1  UNL1        0.1953
     12 C          63.4176   89.5500   12.9929 C.3     1  UNL1        0.1381
     13 H          67.0479   93.1917   16.4205 H       1  UNL1        0.2412
     14 H          66.3370   91.7762   17.0521 H       1  UNL1        0.2412
     15 C          60.3074   88.7470    8.9230 C.ar    1  UNL1        0.2569
     16 N          61.1819   89.5999    9.7936 N.ar    1  UNL1       -0.1768
     17 C          62.2049   88.9604   10.6849 C.ar    1  UNL1        0.2226
     18 N          62.3535   87.4680   10.7057 N.ar    1  UNL1       -0.2155
     19 C          61.4790   86.6151    9.8351 C.ar    1  UNL1        0.0942
     20 C          61.6276   85.1226    9.8559 C.3     1  UNL1        0.0548
     21 C          60.4560   87.2546    8.9438 C.ar    1  UNL1        0.2065
     22 F          59.5816   86.4016    8.0732 F       1  UNL1       -0.1980
     23 C          59.4961   89.4153    6.5470 C.3     1  UNL1        0.2543
     24 O          59.2844   89.3866    8.0317 O.3     1  UNL1       -0.4545
     25 C          64.0090   89.6241   14.5142 C.ar    1  UNL1        0.0158
     26 C          63.2919   90.0226   15.7700 C.ar    1  UNL1        0.0013
     27 C          62.9845   88.9934   16.8170 C.ar    1  UNL1        0.0294
     28 C          63.3942   87.5656   16.6081 C.ar    1  UNL1        0.1401
     29 F          63.0869   86.5363   17.6552 F       1  UNL1       -0.2042
     30 C          64.1113   87.1671   15.3524 C.ar    1  UNL1        0.0294
     31 C          64.4187   88.1963   14.3054 C.ar    1  UNL1        0.0013
@<TRIPOS>BOND
     1    23    24    1
     2    24    15    1
     3    15    16   ar
     4    16    17   ar
     5    17     1    1
     6     1     2    1
     7     3     2    1
     8     3     4    1
     9     4     5    2
    10     4     6   am
    11     6     7    1
    12     6     8    1
    13     8     9    1
    14     8    10    2
    15    10    11    1
    16    11    25    1
    17    25    26   ar
    18    26    27   ar
    19    27    28   ar
    20    28    29    1
    21    28    30   ar
    22    30    31   ar
    23    11    12    1
    24    17    18   ar
    25    18    19   ar
    26    19    20    1
    27    19    21   ar
    28    21    22    1
    29    21    15   ar
    30    12     1    1
    31    11     3    1
    32    31    25   ar
    33     9    13    1
    34     9    14    1
@<TRIPOS>MOLECULE
*****
 31 34 0 0 0
SMALL
GASTEIGER

@<TRIPOS>ATOM
      1 N          62.4547   89.2281   11.6375 N.pl3   1  UNL1       -0.2736
      2 C          61.5430   89.9467   10.6875 C.3     1  UNL1        0.1082
      3 C          60.9942   88.9397    9.7207 C.3     1  UNL1        0.1548
      4 C          60.0471   89.0706    8.5649 C.2     1  UNL1        0.2922
      5 O          59.4745   90.4115    8.2124 O.2     1  UNL1       -0.2563
      6 N          59.6725   87.8604    7.7615 N.am    1  UNL1       -0.1448
      7 C          58.7253   87.9913    6.6057 C.3     1  UNL1        0.2159
      8 C          60.2450   86.5196    8.1140 C.2     1  UNL1        0.3732
      9 N          59.8704   85.3094    7.3106 N.pl3   1  UNL1       -0.2512
     10 N          61.1921   86.3887    9.2697 N.2     1  UNL1       -0.1017
     11 C          61.5667   87.5988   10.0731 C.3     1  UNL1        0.1953
     12 C          62.4694   87.7770   11.2578 C.3     1  UNL1        0.1381
     13 H          59.2488   85.3953    6.5520 H       1  UNL1        0.2412
     14 H          60.2462   84.4294    7.5419 H       1  UNL1        0.2412
     15 C          63.6771   90.0820   15.3154 C.ar    1  UNL1        0.2569
     16 N          62.9140   89.4589   14.1842 N.ar    1  UNL1       -0.1768
     17 C          63.2178   89.8512   12.7686 C.ar    1  UNL1        0.2226
     18 N          64.2847   90.8665   12.4842 N.ar    1  UNL1       -0.2155
     19 C          65.0477   91.4895   13.6154 C.ar    1  UNL1        0.0942
     20 C          66.1146   92.5049   13.3310 C.3     1  UNL1        0.0548
     21 C          64.7440   91.0973   15.0310 C.ar    1  UNL1        0.2065
     22 F          65.5071   91.7204   16.1621 F       1  UNL1       -0.1980
     23 C          63.0430   88.2639   17.0597 C.3     1  UNL1        0.2543
     24 O          63.3733   89.6897   16.7309 O.3     1  UNL1       -0.4545
     25 C          62.2159   86.3304   10.5418 C.ar    1  UNL1        0.0158
     26 C          62.9150   85.4382    9.5594 C.ar    1  UNL1        0.0013
     27 C          63.5641   84.1698   10.0281 C.ar    1  UNL1        0.0294
     28 C          63.5141   83.7936   11.4793 C.ar    1  UNL1        0.1401
     29 F          64.1633   82.5251   11.9481 F       1  UNL1       -0.2042
     30 C          62.8150   84.6858   12.4617 C.ar    1  UNL1        0.0294
     31 C          62.1659   85.9542   11.9930 C.ar    1  UNL1        0.0013
@<TRIPOS>BOND
     1    23    24    1
     2    24    15    1
     3    15    16   ar
     4    16    17   ar
     5    17     1    1
     6     1     2    1
     7     3     2    1
     8     3     4    1
     9     4     5    2
    10     4     6   am
    11     6     7    1
    12     6     8    1
    13     8     9    1
    14     8    10    2
    15    10    11    1
    16    11    25    1
    17    25    26   ar
    18    26    27   ar
    19    27    28   ar
    20    28    29    1
    21    28    30   ar
    22    30    31   ar
    23    11    12    1
    24    17    18   ar
    25    18    19   ar
    26    19    20    1
    27    19    21   ar
    28    21    22    1
    29    21    15   ar
    30    12     1    1
    31    11     3    1
    32    31    25   ar
    33     9    13    1
    34     9    14    1
@<TRIPOS>MOLECULE
*****
 31 34 0 0 0
SMALL
GASTEIGER

@<TRIPOS>ATOM
      1 N          62.4413   89.2343   11.6195 N.pl3   1  UNL1       -0.2736
      2 C          61.5285   89.9521   10.6700 C.3     1  UNL1        0.1082
      3 C          60.9821   88.9450    9.7018 C.3     1  UNL1        0.1548
      4 C          60.0352   89.0753    8.5458 C.2     1  UNL1        0.2922
      5 O          59.4601   90.4154    8.1946 O.2     1  UNL1       -0.2563
      6 N          59.6633   87.8652    7.7410 N.am    1  UNL1       -0.1448
      7 C          58.7163   87.9954    6.5849 C.3     1  UNL1        0.2159
      8 C          60.2383   86.5252    8.0922 C.2     1  UNL1        0.3732
      9 N          59.8664   85.3151    7.2874 N.pl3   1  UNL1       -0.2512
     10 N          61.1852   86.3949    9.2482 N.2     1  UNL1       -0.1017
     11 C          61.5571   87.6049   10.0530 C.3     1  UNL1        0.1953
     12 C          62.4590   87.7836   11.2382 C.3     1  UNL1        0.1381
     13 H          59.2449   85.4005    6.5287 H       1  UNL1        0.2412
     14 H          60.2439   84.4356    7.5179 H       1  UNL1        0.2412
     15 C          65.0415   91.4854   13.5998 C.ar    1  UNL1        0.2569
     16 N          64.2800   90.8620   12.4677 N.ar    1  UNL1       -0.1768
     17 C          63.2027   89.8576   12.7516 C.ar    1  UNL1        0.2226
     18 N          62.8868   89.4767   14.1676 N.ar    1  UNL1       -0.2155
     19 C          63.6483   90.1001   15.2997 C.ar    1  UNL1        0.0942
     20 C          63.3324   89.7192   16.7157 C.3     1  UNL1        0.0548
     21 C          64.7256   91.1045   15.0158 C.ar    1  UNL1        0.2065
     22 F          65.4870   91.7278   16.1479 F       1  UNL1       -0.1980
     23 C          65.9743   93.4392   12.1636 C.3     1  UNL1        0.2543
     24 O          66.1188   92.4897   13.3158 O.3     1  UNL1       -0.4545
     25 C          62.2086   86.3372   10.5207 C.ar    1  UNL1        0.0158
     26 C          62.1575   85.9586   11.9712 C.ar    1  UNL1        0.0013
     27 C          62.8090   84.6910   12.4388 C.ar    1  UNL1        0.0294
     28 C          63.5115   83.8020   11.4559 C.ar    1  UNL1        0.1401
     29 F          64.1631   82.5343   11.9235 F       1  UNL1       -0.2042
     30 C          63.5626   84.1807   10.0054 C.ar    1  UNL1        0.0294
     31 C          62.9111   85.4483    9.5377 C.ar    1  UNL1        0.0013
@<TRIPOS>BOND
     1    23    24    1
     2    24    15    1
     3    15    16   ar
     4    16    17   ar
     5    17     1    1
     6     1     2    1
     7     3     2    1
     8     3     4    1
     9     4     5    2
    10     4     6   am
    11     6     7    1
    12     6     8    1
    13     8     9    1
    14     8    10    2
    15    10    11    1
    16    11    25    1
    17    25    26   ar
    18    26    27   ar
    19    27    28   ar
    20    28    29    1
    21    28    30   ar
    22    30    31   ar
    23    11    12    1
    24    17    18   ar
    25    18    19   ar
    26    19    20    1
    27    19    21   ar
    28    21    22    1
    29    21    15   ar
    30    12     1    1
    31    11     3    1
    32    31    25   ar
    33     9    13    1
    34     9    14    1
@<TRIPOS>MOLECULE
*****
 31 34 0 0 0
SMALL
GASTEIGER

@<TRIPOS>ATOM
      1 N          62.8067   84.9685   12.2687 N.pl3   1  UNL1       -0.2736
      2 C          63.5571   85.8218   13.2479 C.3     1  UNL1        0.1082
      3 C          63.3796   87.2555   12.8443 C.3     1  UNL1        0.1548
      4 C          63.8901   88.5355   13.4369 C.2     1  UNL1        0.2922
      5 O          64.7501   88.5028   14.6655 O.2     1  UNL1       -0.2563
      6 N          63.5405   89.8483   12.8008 N.am    1  UNL1       -0.1448
      7 C          64.0510   91.1283   13.3934 C.3     1  UNL1        0.2159
      8 C          62.6806   89.8810   11.5723 C.2     1  UNL1        0.3732
      9 N          62.3310   91.1938   10.9362 N.pl3   1  UNL1       -0.2512
     10 N          62.1701   88.6011   10.9798 N.2     1  UNL1       -0.1017
     11 C          62.5197   87.2883   11.6158 C.3     1  UNL1        0.1953
     12 C          62.1656   85.8748   11.2600 C.3     1  UNL1        0.1381
     13 H          62.6660   92.0339   11.3251 H       1  UNL1        0.2412
     14 H          61.7666   91.2153   10.1299 H       1  UNL1        0.2412
     15 C          63.1088   81.1732   11.1485 C.ar    1  UNL1        0.2569
     16 N          63.2017   82.6701   11.1235 N.ar    1  UNL1       -0.1768
     17 C          62.7138   83.4715   12.2938 C.ar    1  UNL1        0.2226
     18 N          62.1331   82.7761   13.4892 N.ar    1  UNL1       -0.2155
     19 C          62.0402   81.2791   13.5142 C.ar    1  UNL1        0.0942
     20 C          61.4595   80.5836   14.7096 C.3     1  UNL1        0.0548
     21 C          62.5281   80.4777   12.3439 C.ar    1  UNL1        0.2065
     22 F          62.4351   78.9808   12.3690 F       1  UNL1       -0.1980
     23 C          62.7777   79.2273    9.4591 C.3     1  UNL1        0.2543
     24 O          63.5967   80.3718    9.9781 O.3     1  UNL1       -0.4545
     25 C          61.6547   87.1644   10.3966 C.ar    1  UNL1        0.0158
     26 C          62.1511   86.4109    9.1983 C.ar    1  UNL1        0.0013
     27 C          61.2861   86.2870    7.9791 C.ar    1  UNL1        0.0294
     28 C          59.9248   86.9166    7.9582 C.ar    1  UNL1        0.1401
     29 F          59.0598   86.7928    6.7389 F       1  UNL1       -0.2042
     30 C          59.4285   87.6702    9.1565 C.ar    1  UNL1        0.0294
     31 C          60.2934   87.7941   10.3757 C.ar    1  UNL1        0.0013
@<TRIPOS>BOND
     1    23    24    1
     2    24    15    1
     3    15    16   ar
     4    16    17   ar
     5    17     1    1
     6     1     2    1
     7     3     2    1
     8     3     4    1
     9     4     5    2
    10     4     6   am
    11     6     7    1
    12     6     8    1
    13     8     9    1
    14     8    10    2
    15    10    11    1
    16    11    25    1
    17    25    26   ar
    18    26    27   ar
    19    27    28   ar
    20    28    29    1
    21    28    30   ar
    22    30    31   ar
    23    11    12    1
    24    17    18   ar
    25    18    19   ar
    26    19    20    1
    27    19    21   ar
    28    21    22    1
    29    21    15   ar
    30    12     1    1
    31    11     3    1
    32    31    25   ar
    33     9    13    1
    34     9    14    1
@<TRIPOS>MOLECULE
*****
 31 34 0 0 0
SMALL
GASTEIGER

@<TRIPOS>ATOM
      1 N          63.5713   86.6973   13.3100 N.pl3   1  UNL1       -0.2736
      2 C          63.9132   85.6399   14.3175 C.3     1  UNL1        0.1082
      3 C          63.6516   84.3019   13.6920 C.3     1  UNL1        0.1548
      4 C          63.8069   82.9034   14.2117 C.2     1  UNL1        0.2922
      5 O          64.3104   82.6728   15.6058 O.2     1  UNL1       -0.2563
      6 N          63.4587   81.7354   13.3372 N.am    1  UNL1       -0.1448
      7 C          63.6139   80.3368   13.8570 C.3     1  UNL1        0.2159
      8 C          62.9552   81.9659   11.9433 C.2     1  UNL1        0.3732
      9 N          62.6070   80.7978   11.0688 N.pl3   1  UNL1       -0.2512
     10 N          62.7999   83.3643   11.4235 N.2     1  UNL1       -0.1017
     11 C          63.1482   84.5323   12.2979 C.3     1  UNL1        0.1953
     12 C          63.0985   86.0128   12.0619 C.3     1  UNL1        0.1381
     13 H          62.7089   79.8799   11.4099 H       1  UNL1        0.2412
     14 H          62.2765   80.9492   10.1539 H       1  UNL1        0.2412
     15 C          63.8678   90.5783   12.5349 C.ar    1  UNL1        0.2569
     16 N          63.7564   89.0964   12.3303 N.ar    1  UNL1       -0.1768
     17 C          63.6827   88.1791   13.5148 C.ar    1  UNL1        0.2226
     18 N          63.7205   88.7435   14.9040 N.ar    1  UNL1       -0.2155
     19 C          63.8319   90.2253   15.1087 C.ar    1  UNL1        0.0942
     20 C          63.8696   90.7898   16.4979 C.3     1  UNL1        0.0548
     21 C          63.9055   91.1427   13.9242 C.ar    1  UNL1        0.2065
     22 F          64.0169   92.6245   14.1289 F       1  UNL1       -0.1980
     23 C          63.0705   91.2477   10.1546 C.3     1  UNL1        0.2543
     24 O          63.9415   91.4955   11.3504 O.3     1  UNL1       -0.4545
     25 C          62.6591   84.9165   10.9329 C.ar    1  UNL1        0.0158
     26 C          61.4052   85.7266   10.7859 C.ar    1  UNL1        0.0013
     27 C          60.9162   86.1107    9.4209 C.ar    1  UNL1        0.0294
     28 C          61.6810   85.6847    8.2029 C.ar    1  UNL1        0.1401
     29 F          61.1919   86.0688    6.8378 F       1  UNL1       -0.2042
     30 C          62.9348   84.8746    8.3499 C.ar    1  UNL1        0.0294
     31 C          63.4239   84.4905    9.7149 C.ar    1  UNL1        0.0013
@<TRIPOS>BOND
     1    23    24    1
     2    24    15    1
     3    15    16   ar
     4    16    17   ar
     5    17     1    1
     6     1     2    1
     7     3     2    1
     8     3     4    1
     9     4     5    2
    10     4     6   am
    11     6     7    1
    12     6     8    1
    13     8     9    1
    14     8    10    2
    15    10    11    1
    16    11    25    1
    17    25    26   ar
    18    26    27   ar
    19    27    28   ar
    20    28    29    1
    21    28    30   ar
    22    30    31   ar
    23    11    12    1
    24    17    18   ar
    25    18    19   ar
    26    19    20    1
    27    19    21   ar
    28    21    22    1
    29    21    15   ar
    30    12     1    1
    31    11     3    1
    32    31    25   ar
    33     9    13    1
    34     9    14    1
@<TRIPOS>MOLECULE
*****
 31 34 0 0 0
SMALL
GASTEIGER

@<TRIPOS>ATOM
      1 N          62.7600   85.0188   12.3103 N.pl3   1  UNL1       -0.2736
      2 C          63.5292   85.8583   13.2868 C.3     1  UNL1        0.1082
      3 C          63.3841   87.2943   12.8786 C.3     1  UNL1        0.1548
      4 C          63.9231   88.5644   13.4670 C.2     1  UNL1        0.2922
      5 O          64.7821   88.5164   14.6958 O.2     1  UNL1       -0.2563
      6 N          63.6031   89.8826   12.8266 N.am    1  UNL1       -0.1448
      7 C          64.1422   91.1528   13.4150 C.3     1  UNL1        0.2159
      8 C          62.7442   89.9306   11.5979 C.2     1  UNL1        0.3732
      9 N          62.4242   91.2489   10.9575 N.pl3   1  UNL1       -0.2512
     10 N          62.2052   88.6606   11.0095 N.2     1  UNL1       -0.1017
     11 C          62.5251   87.3424   11.6498 C.3     1  UNL1        0.1953
     12 C          62.1394   85.9360   11.2986 C.3     1  UNL1        0.1381
     13 H          62.7780   92.0825   11.3436 H       1  UNL1        0.2412
     14 H          61.8604   91.2804   10.1510 H       1  UNL1        0.2412
     15 C          61.7888   81.3607   13.5045 C.ar    1  UNL1        0.2569
     16 N          61.9154   82.8551   13.4745 N.ar    1  UNL1       -0.1768
     17 C          62.6335   83.5244   12.3403 C.ar    1  UNL1        0.2226
     18 N          63.2250   82.6994   11.2361 N.ar    1  UNL1       -0.2155
     19 C          63.0985   81.2050   11.2661 C.ar    1  UNL1        0.0942
     20 C          63.6900   80.3799   10.1619 C.3     1  UNL1        0.0548
     21 C          62.3804   80.5357   12.4003 C.ar    1  UNL1        0.2065
     22 F          62.2539   79.0413   12.4303 F       1  UNL1       -0.1980
     23 C          59.6820   80.1613   14.4386 C.3     1  UNL1        0.2543
     24 O          61.0707   80.6915   14.6387 O.3     1  UNL1       -0.4545
     25 C          61.6576   87.2340   10.4309 C.ar    1  UNL1        0.0158
     26 C          60.3082   87.8888   10.4100 C.ar    1  UNL1        0.0013
     27 C          59.4408   87.7804    9.1912 C.ar    1  UNL1        0.0294
     28 C          59.9227   87.0171    7.9932 C.ar    1  UNL1        0.1401
     29 F          59.0551   86.9087    6.7742 F       1  UNL1       -0.2042
     30 C          61.2720   86.3623    8.0140 C.ar    1  UNL1        0.0294
     31 C          62.1395   86.4707    9.2329 C.ar    1  UNL1        0.0013
@<TRIPOS>BOND
     1    23    24    1
     2    24    15    1
     3    15    16   ar
     4    16    17   ar
     5    17     1    1
     6     1     2    1
     7     3     2    1
     8     3     4    1
     9     4     5    2
    10     4     6   am
    11     6     7    1
    12     6     8    1
    13     8     9    1
    14     8    10    2
    15    10    11    1
    16    11    25    1
    17    25    26   ar
    18    26    27   ar
    19    27    28   ar
    20    28    29    1
    21    28    30   ar
    22    30    31   ar
    23    11    12    1
    24    17    18   ar
    25    18    19   ar
    26    19    20    1
    27    19    21   ar
    28    21    22    1
    29    21    15   ar
    30    12     1    1
    31    11     3    1
    32    31    25   ar
    33     9    13    1
    34     9    14    1
@<TRIPOS>MOLECULE
*****
 31 34 0 0 0
SMALL
GASTEIGER

@<TRIPOS>ATOM
      1 N          63.6151   86.9529   13.0070 N.pl3   1  UNL1       -0.2736
      2 C          63.8762   86.0040   14.1389 C.3     1  UNL1        0.1082
      3 C          63.5346   84.6201   13.6717 C.3     1  UNL1        0.1548
      4 C          63.5926   83.2868   14.3564 C.2     1  UNL1        0.2922
      5 O          64.0649   83.1930   15.7770 O.2     1  UNL1       -0.2563
      6 N          63.1783   82.0471   13.6204 N.am    1  UNL1       -0.1448
      7 C          63.2363   80.7137   14.3051 C.3     1  UNL1        0.2159
      8 C          62.7060   82.1408   12.1998 C.2     1  UNL1        0.3732
      9 N          62.2917   80.9012   11.4638 N.pl3   1  UNL1       -0.2512
     10 N          62.6481   83.4742   11.5151 N.2     1  UNL1       -0.1017
     11 C          63.0624   84.7138   12.2511 C.3     1  UNL1        0.1953
     12 C          63.1121   86.1556   11.8402 C.3     1  UNL1        0.1381
     13 H          62.3297   80.0260   11.9131 H       1  UNL1        0.2412
     14 H          61.9818   80.9627   10.5314 H       1  UNL1        0.2412
     15 C          64.5922   90.5786   14.2916 C.ar    1  UNL1        0.2569
     16 N          64.3864   89.0931   14.2619 N.ar    1  UNL1       -0.1768
     17 C          63.8208   88.4385   13.0365 C.ar    1  UNL1        0.2226
     18 N          63.4609   89.2694   11.8407 N.ar    1  UNL1       -0.2155
     19 C          63.6667   90.7550   11.8704 C.ar    1  UNL1        0.0942
     20 C          63.3068   91.5860   10.6746 C.3     1  UNL1        0.0548
     21 C          64.2323   91.4096   13.0958 C.ar    1  UNL1        0.2065
     22 F          64.4380   92.8951   13.1254 F       1  UNL1       -0.1980
     23 C          66.3467   92.1404   15.4018 C.3     1  UNL1        0.2543
     24 O          65.1578   91.2331   15.5170 O.3     1  UNL1       -0.4545
     25 C          62.6142   84.9623   10.8413 C.ar    1  UNL1        0.0158
     26 C          61.3586   85.7401   10.5796 C.ar    1  UNL1        0.0013
     27 C          60.9104   85.9886    9.1698 C.ar    1  UNL1        0.0294
     28 C          61.7178   85.4593    8.0219 C.ar    1  UNL1        0.1401
     29 F          61.2697   85.7078    6.6120 F       1  UNL1       -0.2042
     30 C          62.9734   84.6815    8.2836 C.ar    1  UNL1        0.0294
     31 C          63.4216   84.4330    9.6934 C.ar    1  UNL1        0.0013
@<TRIPOS>BOND
     1    23    24    1
     2    24    15    1
     3    15    16   ar
     4    16    17   ar
     5    17     1    1
     6     1     2    1
     7     3     2    1
     8     3     4    1
     9     4     5    2
    10     4     6   am
    11     6     7    1
    12     6     8    1
    13     8     9    1
    14     8    10    2
    15    10    11    1
    16    11    25    1
    17    25    26   ar
    18    26    27   ar
    19    27    28   ar
    20    28    29    1
    21    28    30   ar
    22    30    31   ar
    23    11    12    1
    24    17    18   ar
    25    18    19   ar
    26    19    20    1
    27    19    21   ar
    28    21    22    1
    29    21    15   ar
    30    12     1    1
    31    11     3    1
    32    31    25   ar
    33     9    13    1
    34     9    14    1
