@<TRIPOS>MOLECULE
*****
 27 29 0 0 0
SMALL
GASTEIGER

@<TRIPOS>ATOM
      1 C          63.6204   88.7703   13.0486 C.ar    1  UNL1        0.1389
      2 C          62.7574   88.9426   11.8339 C.ar    1  UNL1        0.0553
      3 C          62.1079   87.7484   11.1998 C.ar    1  UNL1        0.1048
      4 N          62.3215   86.3820   11.7803 N.ar    1  UNL1       -0.2083
      5 C          63.1845   86.2097   12.9950 C.ar    1  UNL1        0.2539
      6 N          63.8339   87.4039   13.6291 N.ar    1  UNL1       -0.1948
      7 C          61.2449   87.9208    9.9850 C.ar    1  UNL1        0.1004
      8 C          60.8709   89.2969    9.5199 C.ar    1  UNL1        0.0208
      9 C          60.0079   89.4693    8.3052 C.ar    1  UNL1        0.0044
     10 C          59.5189   88.2655    7.5556 C.ar    1  UNL1        0.0339
     11 C          59.8929   86.8894    8.0207 C.ar    1  UNL1        0.1254
     12 N          59.4040   85.6856    7.2712 N.pl3   1  UNL1       -0.3426
     13 N          60.7560   86.7170    9.2355 N.ar    1  UNL1       -0.2296
     14 H          58.8376   85.7988    6.4739 H       1  UNL1        0.1437
     15 H          59.6495   84.7824    7.5765 H       1  UNL1        0.1437
     16 N          63.3980   84.8431   13.5756 N.ar    1  UNL1       -0.2008
     17 N          63.3418   83.5468   12.8231 N.ar    1  UNL1       -0.1673
     18 C          63.6143   82.4355   13.7930 C.ar    1  UNL1        0.0806
     19 C          63.6550   80.9717   13.4680 C.3     1  UNL1        0.0540
     20 C          63.8390   83.0451   15.1451 C.ar    1  UNL1        0.0313
     21 C          63.7053   84.5331   15.0107 C.ar    1  UNL1        0.0651
     22 C          63.8530   85.5350   16.1172 C.3     1  UNL1        0.0523
     23 C          64.4584   91.6373   15.6616 C.3     1  UNL1        0.0950
     24 C          63.8090   90.4431   15.0275 C.2     1  UNL1        0.2277
     25 O          62.6986   89.7276   15.7382 O.2     1  UNL1       -0.2747
     26 N          64.2698   89.9645   13.6827 N.am    1  UNL1       -0.2692
     27 H          64.9986   90.4342   13.2163 H       1  UNL1        0.1563
@<TRIPOS>BOND
     1    23    24    1
     2    24    25    2
     3    24    26   am
     4    26     1    1
     5     1     2   ar
     6     2     3   ar
     7     3     7    1
     8     7     8   ar
     9     8     9   ar
    10     9    10   ar
    11    10    11   ar
    12    11    12    1
    13    11    13   ar
    14     3     4   ar
    15     4     5   ar
    16     5    16    1
    17    16    17   ar
    18    17    18   ar
    19    18    19    1
    20    18    20   ar
    21    20    21   ar
    22    21    22    1
    23     5     6   ar
    24     6     1   ar
    25    13     7   ar
    26    21    16   ar
    27    26    27    1
    28    12    14    1
    29    12    15    1
@<TRIPOS>MOLECULE
*****
 27 29 0 0 0
SMALL
GASTEIGER

@<TRIPOS>ATOM
      1 C          63.3150   85.9985   12.9051 C.ar    1  UNL1        0.1389
      2 C          62.4413   86.2014   11.7029 C.ar    1  UNL1        0.0553
      3 C          62.1418   87.5893   11.2190 C.ar    1  UNL1        0.1048
      4 N          62.7159   88.7742   11.9374 N.ar    1  UNL1       -0.2083
      5 C          63.5897   88.5713   13.1397 C.ar    1  UNL1        0.2539
      6 N          63.8892   87.1835   13.6235 N.ar    1  UNL1       -0.1948
      7 C          61.2680   87.7922   10.0167 C.ar    1  UNL1        0.1004
      8 C          60.8824   89.1791    9.5953 C.ar    1  UNL1        0.0208
      9 C          60.0087   89.3820    8.3930 C.ar    1  UNL1        0.0044
     10 C          59.5205   88.1979    7.6122 C.ar    1  UNL1        0.0339
     11 C          59.9061   86.8110    8.0336 C.ar    1  UNL1        0.1254
     12 N          59.4180   85.6269    7.2529 N.pl3   1  UNL1       -0.3426
     13 N          60.7799   86.6081    9.2359 N.ar    1  UNL1       -0.2296
     14 H          58.8445   85.7600    6.4638 H       1  UNL1        0.1437
     15 H          59.6710   84.7166    7.5295 H       1  UNL1        0.1437
     16 N          64.1639   89.7563   13.8581 N.ar    1  UNL1       -0.2008
     17 N          65.0590   90.8011   13.2603 N.ar    1  UNL1       -0.1673
     18 C          65.3922   91.7950   14.3332 C.ar    1  UNL1        0.0806
     19 C          66.2618   93.0067   14.1733 C.3     1  UNL1        0.0540
     20 C          64.7029   91.3646   15.5940 C.ar    1  UNL1        0.0313
     21 C          63.9438   90.1046   15.3004 C.ar    1  UNL1        0.0651
     22 C          63.1109   89.3291   16.2776 C.3     1  UNL1        0.0523
     23 C          63.1204   82.6343   15.0014 C.3     1  UNL1        0.0950
     24 C          62.8209   84.0222   14.5176 C.2     1  UNL1        0.2277
     25 O          61.7276   84.8217   15.1624 O.2     1  UNL1       -0.2747
     26 N          63.6145   84.6106   13.3889 N.am    1  UNL1       -0.2692
     27 H          64.3320   84.0859   12.9657 H       1  UNL1        0.1563
@<TRIPOS>BOND
     1    23    24    1
     2    24    25    2
     3    24    26   am
     4    26     1    1
     5     1     2   ar
     6     2     3   ar
     7     3     7    1
     8     7     8   ar
     9     8     9   ar
    10     9    10   ar
    11    10    11   ar
    12    11    12    1
    13    11    13   ar
    14     3     4   ar
    15     4     5   ar
    16     5    16    1
    17    16    17   ar
    18    17    18   ar
    19    18    19    1
    20    18    20   ar
    21    20    21   ar
    22    21    22    1
    23     5     6   ar
    24     6     1   ar
    25    13     7   ar
    26    21    16   ar
    27    26    27    1
    28    12    14    1
    29    12    15    1
@<TRIPOS>MOLECULE
*****
 27 29 0 0 0
SMALL
GASTEIGER

@<TRIPOS>ATOM
      1 C          61.3859   87.2262    9.6719 C.ar    1  UNL1        0.1389
      2 C          61.6623   85.8238   10.1266 C.ar    1  UNL1        0.0553
      3 C          62.4405   85.5833   11.3862 C.ar    1  UNL1        0.1048
      4 N          62.9422   86.7452   12.1912 N.ar    1  UNL1       -0.2083
      5 C          62.6658   88.1477   11.7365 C.ar    1  UNL1        0.2539
      6 N          61.8877   88.3882   10.4769 N.ar    1  UNL1       -0.1948
      7 C          62.7169   84.1808   11.8408 C.ar    1  UNL1        0.1004
      8 C          63.2441   83.1674   10.8686 C.ar    1  UNL1        0.0208
      9 C          63.5205   81.7649   11.3231 C.ar    1  UNL1        0.0044
     10 C          63.2696   81.3758   12.7500 C.ar    1  UNL1        0.0339
     11 C          62.7424   82.3891   13.7221 C.ar    1  UNL1        0.1254
     12 N          62.4916   82.0000   15.1489 N.pl3   1  UNL1       -0.3426
     13 N          62.4660   83.7916   13.2675 N.ar    1  UNL1       -0.2296
     14 H          62.6730   81.0795   15.4472 H       1  UNL1        0.1437
     15 H          62.1455   82.6651   15.7869 H       1  UNL1        0.1437
     16 N          63.1676   89.3097   12.5416 N.ar    1  UNL1       -0.2008
     17 N          63.3675   89.3318   14.0280 N.ar    1  UNL1       -0.1673
     18 C          63.8810   90.6893   14.4066 C.ar    1  UNL1        0.0806
     19 C          64.2179   91.1492   15.7941 C.3     1  UNL1        0.0540
     20 C          63.9984   91.5063   13.1541 C.ar    1  UNL1        0.0313
     21 C          63.5575   90.6537   12.0014 C.ar    1  UNL1        0.0651
     22 C          63.5142   91.0716   10.5615 C.3     1  UNL1        0.0523
     23 C          59.1106   89.0082    6.9521 C.3     1  UNL1        0.0950
     24 C          59.8888   88.7677    8.2118 C.2     1  UNL1        0.2277
     25 O          59.9478   89.8283    9.2709 O.2     1  UNL1       -0.2747
     26 N          60.6078   87.4667    8.4123 N.am    1  UNL1       -0.2692
     27 H          60.5690   86.7706    7.7172 H       1  UNL1        0.1563
@<TRIPOS>BOND
     1    23    24    1
     2    24    25    2
     3    24    26   am
     4    26     1    1
     5     1     2   ar
     6     2     3   ar
     7     3     7    1
     8     7     8   ar
     9     8     9   ar
    10     9    10   ar
    11    10    11   ar
    12    11    12    1
    13    11    13   ar
    14     3     4   ar
    15     4     5   ar
    16     5    16    1
    17    16    17   ar
    18    17    18   ar
    19    18    19    1
    20    18    20   ar
    21    20    21   ar
    22    21    22    1
    23     5     6   ar
    24     6     1   ar
    25    13     7   ar
    26    21    16   ar
    27    26    27    1
    28    12    14    1
    29    12    15    1
@<TRIPOS>MOLECULE
*****
 27 29 0 0 0
SMALL
GASTEIGER

@<TRIPOS>ATOM
      1 C          61.9720   88.7810   10.4824 C.ar    1  UNL1        0.1389
      2 C          62.0055   87.3160   10.8024 C.ar    1  UNL1        0.0553
      3 C          62.7487   86.8290   12.0109 C.ar    1  UNL1        0.1048
      4 N          63.4584   87.8071   12.8995 N.ar    1  UNL1       -0.2083
      5 C          63.4249   89.2722   12.5795 C.ar    1  UNL1        0.2539
      6 N          62.6817   89.7591   11.3709 N.ar    1  UNL1       -0.1948
      7 C          62.7821   85.3639   12.3309 C.ar    1  UNL1        0.1004
      8 C          62.8731   84.3562   11.2234 C.ar    1  UNL1        0.0208
      9 C          62.9066   82.8912   11.5433 C.ar    1  UNL1        0.0044
     10 C          62.8490   82.4336   12.9707 C.ar    1  UNL1        0.0339
     11 C          62.7579   83.4412   14.0782 C.ar    1  UNL1        0.1254
     12 N          62.7004   82.9838   15.5055 N.pl3   1  UNL1       -0.3426
     13 N          62.7245   84.9064   13.7582 N.ar    1  UNL1       -0.2296
     14 H          62.7223   82.0222   15.7155 H       1  UNL1        0.1437
     15 H          62.6406   83.6451   16.2324 H       1  UNL1        0.1437
     16 N          64.1346   90.2504   13.4680 N.ar    1  UNL1       -0.2008
     17 N          65.0536   91.3463   13.0159 N.ar    1  UNL1       -0.1673
     18 C          65.5369   92.0776   14.2331 C.ar    1  UNL1        0.0806
     19 C          66.4757   93.2475   14.2440 C.3     1  UNL1        0.0540
     20 C          64.9166   91.4336   15.4375 C.ar    1  UNL1        0.0313
     21 C          64.0500   90.3043   14.9647 C.ar    1  UNL1        0.0651
     22 C          63.2408   89.3896   15.8356 C.3     1  UNL1        0.0523
     23 C          59.3862   88.9226    7.4752 C.3     1  UNL1        0.0950
     24 C          60.1294   88.4356    8.6837 C.2     1  UNL1        0.2277
     25 O          59.7730   87.1163    9.3021 O.2     1  UNL1       -0.2747
     26 N          61.2289   89.2680    9.2738 N.am    1  UNL1       -0.2692
     27 H          61.4628   90.1339    8.8679 H       1  UNL1        0.1563
@<TRIPOS>BOND
     1    23    24    1
     2    24    25    2
     3    24    26   am
     4    26     1    1
     5     1     2   ar
     6     2     3   ar
     7     3     7    1
     8     7     8   ar
     9     8     9   ar
    10     9    10   ar
    11    10    11   ar
    12    11    12    1
    13    11    13   ar
    14     3     4   ar
    15     4     5   ar
    16     5    16    1
    17    16    17   ar
    18    17    18   ar
    19    18    19    1
    20    18    20   ar
    21    20    21   ar
    22    21    22    1
    23     5     6   ar
    24     6     1   ar
    25    13     7   ar
    26    21    16   ar
    27    26    27    1
    28    12    14    1
    29    12    15    1
@<TRIPOS>MOLECULE
*****
 27 29 0 0 0
SMALL
GASTEIGER

@<TRIPOS>ATOM
      1 C          61.1344   87.4522   10.8798 C.ar    1  UNL1        0.1389
      2 C          61.9104   88.7037   11.1652 C.ar    1  UNL1        0.0553
      3 C          63.0580   88.6709   12.1306 C.ar    1  UNL1        0.1048
      4 N          63.4294   87.3867   12.8108 N.ar    1  UNL1       -0.2083
      5 C          62.6534   86.1352   12.5254 C.ar    1  UNL1        0.2539
      6 N          61.5059   86.1679   11.5600 N.ar    1  UNL1       -0.1948
      7 C          63.8340   89.9225   12.4159 C.ar    1  UNL1        0.1004
      8 C          64.4151   90.1501   13.7799 C.ar    1  UNL1        0.0208
      9 C          65.1911   91.4016   14.0653 C.ar    1  UNL1        0.0044
     10 C          65.3861   92.4257   12.9866 C.ar    1  UNL1        0.0339
     11 C          64.8049   92.1981   11.6226 C.ar    1  UNL1        0.1254
     12 N          64.9998   93.2220   10.5439 N.pl3   1  UNL1       -0.3426
     13 N          64.0289   90.9465   11.3373 N.ar    1  UNL1       -0.2296
     14 H          65.5092   94.0434   10.7312 H       1  UNL1        0.1437
     15 H          64.6184   93.0726    9.6487 H       1  UNL1        0.1437
     16 N          63.0249   84.8508   13.2056 N.ar    1  UNL1       -0.2008
     17 N          62.7724   83.4692   12.6790 N.ar    1  UNL1       -0.1673
     18 C          63.3054   82.4871   13.6796 C.ar    1  UNL1        0.0806
     19 C          63.2639   80.9927   13.5568 C.3     1  UNL1        0.0540
     20 C          63.8874   83.2618   14.8247 C.ar    1  UNL1        0.0313
     21 C          63.7140   84.7227   14.5317 C.ar    1  UNL1        0.0651
     22 C          64.1527   85.8563   15.4106 C.3     1  UNL1        0.0523
     23 C          58.9526   86.8208    7.6255 C.3     1  UNL1        0.0950
     24 C          60.1001   86.7880    8.5909 C.2     1  UNL1        0.2277
     25 O          61.3608   86.0583    8.2329 O.2     1  UNL1       -0.2747
     26 N          59.9869   87.4849    9.9144 N.am    1  UNL1       -0.2692
     27 H          59.1594   87.9638   10.1493 H       1  UNL1        0.1563
@<TRIPOS>BOND
     1    23    24    1
     2    24    25    2
     3    24    26   am
     4    26     1    1
     5     1     2   ar
     6     2     3   ar
     7     3     7    1
     8     7     8   ar
     9     8     9   ar
    10     9    10   ar
    11    10    11   ar
    12    11    12    1
    13    11    13   ar
    14     3     4   ar
    15     4     5   ar
    16     5    16    1
    17    16    17   ar
    18    17    18   ar
    19    18    19    1
    20    18    20   ar
    21    20    21   ar
    22    21    22    1
    23     5     6   ar
    24     6     1   ar
    25    13     7   ar
    26    21    16   ar
    27    26    27    1
    28    12    14    1
    29    12    15    1
@<TRIPOS>MOLECULE
*****
 27 29 0 0 0
SMALL
GASTEIGER

@<TRIPOS>ATOM
      1 C          61.3240   88.7826   10.3725 C.ar    1  UNL1        0.1389
      2 C          62.2038   89.7919   11.0487 C.ar    1  UNL1        0.0553
      3 C          63.2023   89.3478   12.0762 C.ar    1  UNL1        0.1048
      4 N          63.3210   87.8944   12.4276 N.ar    1  UNL1       -0.2083
      5 C          62.4412   86.8851   11.7515 C.ar    1  UNL1        0.2539
      6 N          61.4427   87.3292   10.7239 N.ar    1  UNL1       -0.1948
      7 C          64.0821   90.3572   12.7524 C.ar    1  UNL1        0.1004
      8 C          64.5501   90.1222   14.1580 C.ar    1  UNL1        0.0208
      9 C          65.4299   91.1316   14.8341 C.ar    1  UNL1        0.0044
     10 C          65.8417   92.3759   14.1047 C.ar    1  UNL1        0.0339
     11 C          65.3737   92.6109   12.6991 C.ar    1  UNL1        0.1254
     12 N          65.7854   93.8552   11.9696 N.pl3   1  UNL1       -0.3426
     13 N          64.4938   91.6015   12.0229 N.ar    1  UNL1       -0.2296
     14 H          66.3628   94.5177   12.4134 H       1  UNL1        0.1437
     15 H          65.4782   94.0094   11.0471 H       1  UNL1        0.1437
     16 N          62.5598   85.4316   12.1029 N.ar    1  UNL1       -0.2008
     17 N          62.3254   84.8299   13.4567 N.ar    1  UNL1       -0.1673
     18 C          62.5544   83.3512   13.3527 C.ar    1  UNL1        0.0806
     19 C          62.4294   82.3588   14.4706 C.3     1  UNL1        0.0540
     20 C          62.9304   83.0390   11.9345 C.ar    1  UNL1        0.0313
     21 C          62.9338   84.3248   11.1621 C.ar    1  UNL1        0.0651
     22 C          63.2547   84.4770    9.7048 C.3     1  UNL1        0.0523
     23 C          58.9930   88.7763    7.1606 C.3     1  UNL1        0.0950
     24 C          59.9915   88.3322    8.1882 C.2     1  UNL1        0.2277
     25 O          60.6559   86.9935    8.0589 O.2     1  UNL1       -0.2747
     26 N          60.3256   89.2267    9.3450 N.am    1  UNL1       -0.2692
     27 H          59.8895   90.1052    9.4298 H       1  UNL1        0.1563
@<TRIPOS>BOND
     1    23    24    1
     2    24    25    2
     3    24    26   am
     4    26     1    1
     5     1     2   ar
     6     2     3   ar
     7     3     7    1
     8     7     8   ar
     9     8     9   ar
    10     9    10   ar
    11    10    11   ar
    12    11    12    1
    13    11    13   ar
    14     3     4   ar
    15     4     5   ar
    16     5    16    1
    17    16    17   ar
    18    17    18   ar
    19    18    19    1
    20    18    20   ar
    21    20    21   ar
    22    21    22    1
    23     5     6   ar
    24     6     1   ar
    25    13     7   ar
    26    21    16   ar
    27    26    27    1
    28    12    14    1
    29    12    15    1
@<TRIPOS>MOLECULE
*****
 27 29 0 0 0
SMALL
GASTEIGER

@<TRIPOS>ATOM
      1 C          62.7637   88.5707   11.5247 C.ar    1  UNL1        0.1389
      2 C          63.3659   89.6712   12.3470 C.ar    1  UNL1        0.0553
      3 C          64.0402   89.3520   13.6483 C.ar    1  UNL1        0.1048
      4 N          64.1123   87.9324   14.1273 N.ar    1  UNL1       -0.2083
      5 C          63.5101   86.8320   13.3050 C.ar    1  UNL1        0.2539
      6 N          62.8358   87.1511   12.0036 N.ar    1  UNL1       -0.1948
      7 C          64.6424   90.4526   14.4707 C.ar    1  UNL1        0.1004
      8 C          63.9891   90.8737   15.7536 C.ar    1  UNL1        0.0208
      9 C          64.5912   91.9742   16.5759 C.ar    1  UNL1        0.0044
     10 C          65.8468   92.6536   16.1154 C.ar    1  UNL1        0.0339
     11 C          66.5001   92.2325   14.8325 C.ar    1  UNL1        0.1254
     12 N          67.7556   92.9119   14.3719 N.pl3   1  UNL1       -0.3426
     13 N          65.8979   91.1320   14.0101 N.ar    1  UNL1       -0.2296
     14 H          68.1509   93.6342   14.9117 H       1  UNL1        0.1437
     15 H          68.1844   92.6355   13.5299 H       1  UNL1        0.1437
     16 N          63.5822   85.4123   13.7840 N.ar    1  UNL1       -0.2008
     17 N          63.6708   84.1923   12.9157 N.ar    1  UNL1       -0.1673
     18 C          63.7217   82.9894   13.8103 C.ar    1  UNL1        0.0806
     19 C          63.8137   81.5608   13.3625 C.3     1  UNL1        0.0540
     20 C          63.6645   83.4659   15.2315 C.ar    1  UNL1        0.0313
     21 C          63.5782   84.9634   15.2152 C.ar    1  UNL1        0.0651
     22 C          63.5015   85.8552   16.4188 C.3     1  UNL1        0.0523
     23 C          59.9298   89.0485    8.7877 C.3     1  UNL1        0.0950
     24 C          60.6041   88.7293   10.0891 C.2     1  UNL1        0.2277
     25 O          59.7930   88.2496   11.2562 O.2     1  UNL1       -0.2747
     26 N          62.0894   88.8899   10.2233 N.am    1  UNL1       -0.2692
     27 H          62.6217   89.2047    9.4573 H       1  UNL1        0.1563
@<TRIPOS>BOND
     1    23    24    1
     2    24    25    2
     3    24    26   am
     4    26     1    1
     5     1     2   ar
     6     2     3   ar
     7     3     7    1
     8     7     8   ar
     9     8     9   ar
    10     9    10   ar
    11    10    11   ar
    12    11    12    1
    13    11    13   ar
    14     3     4   ar
    15     4     5   ar
    16     5    16    1
    17    16    17   ar
    18    17    18   ar
    19    18    19    1
    20    18    20   ar
    21    20    21   ar
    22    21    22    1
    23     5     6   ar
    24     6     1   ar
    25    13     7   ar
    26    21    16   ar
    27    26    27    1
    28    12    14    1
    29    12    15    1
@<TRIPOS>MOLECULE
*****
 27 29 0 0 0
SMALL
GASTEIGER

@<TRIPOS>ATOM
      1 C          63.2798   90.6507   13.4118 C.ar    1  UNL1        0.1389
      2 C          64.3082   91.5845   12.8458 C.ar    1  UNL1        0.0553
      3 C          64.4657   91.7152   11.3598 C.ar    1  UNL1        0.1048
      4 N          63.5948   90.9120   10.4398 N.ar    1  UNL1       -0.2083
      5 C          62.5664   89.9782   11.0058 C.ar    1  UNL1        0.2539
      6 N          62.4089   89.8475   12.4917 N.ar    1  UNL1       -0.1948
      7 C          65.4941   92.6490   10.7939 C.ar    1  UNL1        0.1004
      8 C          66.7732   92.1040   10.2310 C.ar    1  UNL1        0.0208
      9 C          67.8016   93.0378    9.6650 C.ar    1  UNL1        0.0044
     10 C          67.5510   94.5167    9.6620 C.ar    1  UNL1        0.0339
     11 C          66.2719   95.0618   10.2249 C.ar    1  UNL1        0.1254
     12 N          66.0212   96.5407   10.2218 N.pl3   1  UNL1       -0.3426
     13 N          65.2435   94.1279   10.7908 N.ar    1  UNL1       -0.2296
     14 H          66.6962   97.1536    9.8504 H       1  UNL1        0.1437
     15 H          65.1817   96.8984   10.5913 H       1  UNL1        0.1437
     16 N          61.6955   89.1749   10.0858 N.ar    1  UNL1       -0.2008
     17 N          60.7897   89.7260    9.0247 N.ar    1  UNL1       -0.1673
     18 C          60.1118   88.5713    8.3484 C.ar    1  UNL1        0.0806
     19 C          59.1210   88.6649    7.2261 C.3     1  UNL1        0.0540
     20 C          60.5987   87.3067    8.9916 C.ar    1  UNL1        0.0313
     21 C          61.5774   87.6798   10.0653 C.ar    1  UNL1        0.0651
     22 C          62.3096   86.7252   10.9613 C.3     1  UNL1        0.0523
     23 C          63.2595   89.0818   17.0571 C.3     1  UNL1        0.0950
     24 C          63.4170   89.2125   15.5711 C.2     1  UNL1        0.2277
     25 O          63.8693   88.0355   14.7585 O.2     1  UNL1       -0.2747
     26 N          63.1223   90.5200   14.8977 N.am    1  UNL1       -0.2692
     27 H          62.8254   91.2925   15.4311 H       1  UNL1        0.1563
@<TRIPOS>BOND
     1    23    24    1
     2    24    25    2
     3    24    26   am
     4    26     1    1
     5     1     2   ar
     6     2     3   ar
     7     3     7    1
     8     7     8   ar
     9     8     9   ar
    10     9    10   ar
    11    10    11   ar
    12    11    12    1
    13    11    13   ar
    14     3     4   ar
    15     4     5   ar
    16     5    16    1
    17    16    17   ar
    18    17    18   ar
    19    18    19    1
    20    18    20   ar
    21    20    21   ar
    22    21    22    1
    23     5     6   ar
    24     6     1   ar
    25    13     7   ar
    26    21    16   ar
    27    26    27    1
    28    12    14    1
    29    12    15    1
@<TRIPOS>MOLECULE
*****
 27 29 0 0 0
SMALL
GASTEIGER

@<TRIPOS>ATOM
      1 C          63.7406   88.7479   13.9837 C.ar    1  UNL1        0.1389
      2 C          64.4622   90.0529   13.8224 C.ar    1  UNL1        0.0553
      3 C          64.3286   90.8312   12.5470 C.ar    1  UNL1        0.1048
      4 N          63.4734   90.3043   11.4330 N.ar    1  UNL1       -0.2083
      5 C          62.7518   88.9993   11.5944 C.ar    1  UNL1        0.2539
      6 N          62.8854   88.2210   12.8697 N.ar    1  UNL1       -0.1948
      7 C          65.0502   92.1363   12.3857 C.ar    1  UNL1        0.1004
      8 C          65.7635   92.7484   13.5547 C.ar    1  UNL1        0.0208
      9 C          66.4851   94.0534   13.3935 C.ar    1  UNL1        0.0044
     10 C          66.4934   94.7465   12.0632 C.ar    1  UNL1        0.0339
     11 C          65.7801   94.1345   10.8942 C.ar    1  UNL1        0.1254
     12 N          65.7884   94.8275    9.5639 N.pl3   1  UNL1       -0.3426
     13 N          65.0585   92.8293   11.0555 N.ar    1  UNL1       -0.2296
     14 H          66.2620   95.6840    9.4581 H       1  UNL1        0.1437
     15 H          65.3202   94.4257    8.7967 H       1  UNL1        0.1437
     16 N          61.8965   88.4724   10.4803 N.ar    1  UNL1       -0.2008
     17 N          62.1372   87.2110    9.7050 N.ar    1  UNL1       -0.1673
     18 C          61.0399   87.0734    8.6916 C.ar    1  UNL1        0.0806
     19 C          60.8881   85.9557    7.7028 C.3     1  UNL1        0.0540
     20 C          60.1211   88.2497    8.8406 C.ar    1  UNL1        0.0313
     21 C          60.6506   89.1143    9.9461 C.ar    1  UNL1        0.0651
     22 C          60.0410   90.3958   10.4320 C.3     1  UNL1        0.0523
     23 C          63.0910   87.4768   17.6867 C.3     1  UNL1        0.0950
     24 C          62.9574   88.2550   16.4114 C.2     1  UNL1        0.2277
     25 O          61.9068   89.3187   16.2884 O.2     1  UNL1       -0.2747
     26 N          63.8742   87.9696   15.2590 N.am    1  UNL1       -0.2692
     27 H          64.5637   87.2715   15.3398 H       1  UNL1        0.1563
@<TRIPOS>BOND
     1    23    24    1
     2    24    25    2
     3    24    26   am
     4    26     1    1
     5     1     2   ar
     6     2     3   ar
     7     3     7    1
     8     7     8   ar
     9     8     9   ar
    10     9    10   ar
    11    10    11   ar
    12    11    12    1
    13    11    13   ar
    14     3     4   ar
    15     4     5   ar
    16     5    16    1
    17    16    17   ar
    18    17    18   ar
    19    18    19    1
    20    18    20   ar
    21    20    21   ar
    22    21    22    1
    23     5     6   ar
    24     6     1   ar
    25    13     7   ar
    26    21    16   ar
    27    26    27    1
    28    12    14    1
    29    12    15    1
