@<TRIPOS>MOLECULE
*****
 33 37 0 0 0
SMALL
GASTEIGER

@<TRIPOS>ATOM
      1 O          62.1718   90.6678   12.2624 O.2     1  UNL1       -0.2728
      2 C          62.7011   89.2733   12.4215 C.2     1  UNL1        0.2489
      3 N          62.2016   88.1753   11.5299 N.am    1  UNL1       -0.2779
      4 C          61.1728   88.4719   10.4793 C.3     1  UNL1        0.0935
      5 C          60.6733   87.3739    9.5877 C.3     1  UNL1        0.0219
      6 C          61.2025   85.9794    9.7467 C.3     1  UNL1        0.0078
      7 C          62.2312   85.6829   10.7972 C.3     1  UNL1        0.0419
      8 C          62.7308   86.7809   11.6888 C.3     1  UNL1        0.0953
      9 C          62.7605   84.2884   10.9563 C.ar    1  UNL1       -0.0209
     10 C          64.0139   83.8760   10.2429 C.ar    1  UNL1       -0.0042
     11 C          64.5431   82.4814   10.4020 C.ar    1  UNL1       -0.0003
     12 C          63.8189   81.4994   11.2745 C.ar    1  UNL1       -0.0000
     13 C          62.5655   81.9118   11.9878 C.ar    1  UNL1       -0.0003
     14 C          62.0363   83.3063   11.8287 C.ar    1  UNL1       -0.0042
     15 C          63.7298   88.9769   13.4720 C.3     1  UNL1        0.1972
     16 N          63.9429   89.9365   14.6050 N.ar    1  UNL1       -0.2530
     17 C          63.0248   90.1384   15.7739 C.ar    1  UNL1        0.4224
     18 O          61.7324   89.4163   16.0150 O.2     1  UNL1       -0.2226
     19 O          63.6261   91.1894   16.6593 O.2     1  UNL1       -0.4068
     20 C          64.9158   91.6369   16.0377 C.ar    1  UNL1        0.1661
     21 C          65.9371   92.6495   16.4637 C.ar    1  UNL1        0.0400
     22 C          67.1543   92.8877   15.6201 C.ar    1  UNL1        0.0146
     23 C          67.3501   92.1134   14.3504 C.ar    1  UNL1        0.0593
     24 CL         68.5673   92.3516   13.5068 Cl      1  UNL1       -0.0822
     25 C          66.3287   91.1008   13.9244 C.ar    1  UNL1        0.0319
     26 C          65.1116   90.8626   14.7680 C.ar    1  UNL1        0.1013
     27 C          63.7595   86.4843   12.7394 C.3     1  UNL1        0.0926
     28 N          63.5361   85.3656   13.7133 N.3     1  UNL1       -0.2670
     29 C          64.6100   84.3432   13.9403 C.3     1  UNL1        0.1047
     30 C          64.3867   83.2244   14.9142 C.3     1  UNL1        0.1595
     31 O          63.0895   83.1280   15.6612 O.3     1  UNL1       -0.3508
     32 C          62.0156   84.1505   15.4341 C.3     1  UNL1        0.1595
     33 C          62.2389   85.2692   14.4602 C.3     1  UNL1        0.1047
@<TRIPOS>BOND
     1     1     2    2
     2     2    15    1
     3    15    16    1
     4    16    17   ar
     5    17    18    2
     6    17    19   ar
     7    19    20   ar
     8    20    21   ar
     9    21    22   ar
    10    22    23   ar
    11    23    24    1
    12    23    25   ar
    13    25    26   ar
    14     2     3   am
    15     3     4    1
    16     4     5    1
    17     5     6    1
    18     6     7    1
    19     7     9    1
    20     9    10   ar
    21    10    11   ar
    22    11    12   ar
    23    12    13   ar
    24    13    14   ar
    25     7     8    1
    26     8    27    1
    27    27    28    1
    28    28    29    1
    29    29    30    1
    30    30    31    1
    31    31    32    1
    32    32    33    1
    33    26    16   ar
    34     8     3    1
    35    33    28    1
    36    26    20   ar
    37    14     9   ar
@<TRIPOS>MOLECULE
*****
 33 37 0 0 0
SMALL
GASTEIGER

@<TRIPOS>ATOM
      1 O          64.2901   86.8537   15.9921 O.2     1  UNL1       -0.2728
      2 C          63.9119   87.0892   14.5598 C.2     1  UNL1        0.2489
      3 N          63.4366   85.9467   13.7120 N.am    1  UNL1       -0.2779
      4 C          63.3397   84.5687   14.2965 C.3     1  UNL1        0.0935
      5 C          62.8645   83.4261   13.4488 C.3     1  UNL1        0.0219
      6 C          62.4862   83.6615   12.0165 C.3     1  UNL1        0.0078
      7 C          62.5831   85.0395   11.4320 C.3     1  UNL1        0.0419
      8 C          63.0584   86.1821   12.2797 C.3     1  UNL1        0.0953
      9 C          62.2049   85.2751    9.9997 C.ar    1  UNL1       -0.0209
     10 C          63.1268   84.8404    8.8992 C.ar    1  UNL1       -0.0042
     11 C          62.7485   85.0760    7.4669 C.ar    1  UNL1       -0.0003
     12 C          61.4482   85.7463    7.1351 C.ar    1  UNL1       -0.0000
     13 C          60.5263   86.1809    8.2356 C.ar    1  UNL1       -0.0003
     14 C          60.9046   85.9454    9.6679 C.ar    1  UNL1       -0.0042
     15 C          64.0088   88.4672   13.9754 C.3     1  UNL1        0.1972
     16 N          64.0632   89.6631   14.8791 N.ar    1  UNL1       -0.2530
     17 C          63.0282   90.0492   15.8939 C.ar    1  UNL1        0.4224
     18 O          61.7572   89.3071   16.1831 O.2     1  UNL1       -0.2226
     19 O          63.4876   91.3076   16.5687 O.2     1  UNL1       -0.4068
     20 C          64.8064   91.6993   15.9710 C.ar    1  UNL1        0.1661
     21 C          65.7292   92.8502   16.2427 C.ar    1  UNL1        0.0400
     22 C          67.0079   92.9846   15.4701 C.ar    1  UNL1        0.0146
     23 C          67.3637   91.9683   14.4259 C.ar    1  UNL1        0.0593
     24 CL         68.6424   92.1028   13.6533 Cl      1  UNL1       -0.0822
     25 C          66.4408   90.8175   14.1542 C.ar    1  UNL1        0.0319
     26 C          65.1622   90.6830   14.9268 C.ar    1  UNL1        0.1013
     27 C          63.1553   87.5601   11.6952 C.3     1  UNL1        0.0926
     28 N          61.9291   88.4173   11.5878 N.3     1  UNL1       -0.2670
     29 C          62.0186   89.7798   10.9669 C.3     1  UNL1        0.1047
     30 C          60.7923   90.6371   10.8594 C.3     1  UNL1        0.1595
     31 O          59.4766   90.1317   11.3728 O.3     1  UNL1       -0.3508
     32 C          59.3872   88.7691   11.9936 C.3     1  UNL1        0.1595
     33 C          60.6134   87.9119   12.1011 C.3     1  UNL1        0.1047
@<TRIPOS>BOND
     1     1     2    2
     2     2    15    1
     3    15    16    1
     4    16    17   ar
     5    17    18    2
     6    17    19   ar
     7    19    20   ar
     8    20    21   ar
     9    21    22   ar
    10    22    23   ar
    11    23    24    1
    12    23    25   ar
    13    25    26   ar
    14     2     3   am
    15     3     4    1
    16     4     5    1
    17     5     6    1
    18     6     7    1
    19     7     9    1
    20     9    10   ar
    21    10    11   ar
    22    11    12   ar
    23    12    13   ar
    24    13    14   ar
    25     7     8    1
    26     8    27    1
    27    27    28    1
    28    28    29    1
    29    29    30    1
    30    30    31    1
    31    31    32    1
    32    32    33    1
    33    26    16   ar
    34     8     3    1
    35    33    28    1
    36    26    20   ar
    37    14     9   ar
@<TRIPOS>MOLECULE
*****
 33 37 0 0 0
SMALL
GASTEIGER

@<TRIPOS>ATOM
      1 O          64.4662   87.9054   15.4142 O.2     1  UNL1       -0.2728
      2 C          63.8812   87.9911   14.0355 C.2     1  UNL1        0.2489
      3 N          63.5080   86.7381   13.3001 N.am    1  UNL1       -0.2779
      4 C          63.7198   85.3996   13.9433 C.3     1  UNL1        0.0935
      5 C          63.3466   84.1467   13.2078 C.3     1  UNL1        0.0219
      6 C          62.7616   84.2322   11.8293 C.3     1  UNL1        0.0078
      7 C          62.5498   85.5707   11.1862 C.3     1  UNL1        0.0419
      8 C          62.9230   86.8236   11.9216 C.3     1  UNL1        0.0953
      9 C          61.9648   85.6563    9.8076 C.ar    1  UNL1       -0.0209
     10 C          62.7601   85.1887    8.6249 C.ar    1  UNL1       -0.0042
     11 C          62.1750   85.2744    7.2463 C.ar    1  UNL1       -0.0003
     12 C          60.7946   85.8276    7.0505 C.ar    1  UNL1       -0.0000
     13 C          59.9992   86.2951    8.2332 C.ar    1  UNL1       -0.0003
     14 C          60.5843   86.2095    9.6117 C.ar    1  UNL1       -0.0042
     15 C          63.6694   89.3295   13.3925 C.3     1  UNL1        0.1972
     16 N          64.2737   90.5591   14.0032 N.ar    1  UNL1       -0.2530
     17 C          64.1261   90.9987   15.4297 C.ar    1  UNL1        0.4224
     18 O          63.3483   90.2860   16.4960 O.2     1  UNL1       -0.2226
     19 O          64.8929   92.2763   15.6027 O.2     1  UNL1       -0.4068
     20 C          65.5144   92.6262   14.2831 C.ar    1  UNL1        0.1661
     21 C          66.3793   93.7741   13.8540 C.ar    1  UNL1        0.0400
     22 C          66.8615   93.8607   12.4363 C.ar    1  UNL1        0.0146
     23 C          66.4789   92.7994   11.4477 C.ar    1  UNL1        0.0593
     24 CL         66.9612   92.8861   10.0300 Cl      1  UNL1       -0.0822
     25 C          65.6139   91.6515   11.8769 C.ar    1  UNL1        0.0319
     26 C          65.1317   91.5649   13.2945 C.ar    1  UNL1        0.1013
     27 C          62.7112   88.1621   11.2784 C.3     1  UNL1        0.0926
     28 N          61.4014   88.8744   11.4428 N.3     1  UNL1       -0.2670
     29 C          61.1793   90.1992   10.7754 C.3     1  UNL1        0.1047
     30 C          59.8694   90.9116   10.9397 C.3     1  UNL1        0.1595
     31 O          58.7818   90.2991   11.7715 O.3     1  UNL1       -0.3508
     32 C          59.0040   88.9743   12.4389 C.3     1  UNL1        0.1595
     33 C          60.3137   88.2619   12.2746 C.3     1  UNL1        0.1047
@<TRIPOS>BOND
     1     1     2    2
     2     2    15    1
     3    15    16    1
     4    16    17   ar
     5    17    18    2
     6    17    19   ar
     7    19    20   ar
     8    20    21   ar
     9    21    22   ar
    10    22    23   ar
    11    23    24    1
    12    23    25   ar
    13    25    26   ar
    14     2     3   am
    15     3     4    1
    16     4     5    1
    17     5     6    1
    18     6     7    1
    19     7     9    1
    20     9    10   ar
    21    10    11   ar
    22    11    12   ar
    23    12    13   ar
    24    13    14   ar
    25     7     8    1
    26     8    27    1
    27    27    28    1
    28    28    29    1
    29    29    30    1
    30    30    31    1
    31    31    32    1
    32    32    33    1
    33    26    16   ar
    34     8     3    1
    35    33    28    1
    36    26    20   ar
    37    14     9   ar
@<TRIPOS>MOLECULE
*****
 33 37 0 0 0
SMALL
GASTEIGER

@<TRIPOS>ATOM
      1 O          63.4723   91.2000   12.5886 O.2     1  UNL1       -0.2728
      2 C          63.7418   89.8097   13.0831 C.2     1  UNL1        0.2489
      3 N          63.1439   88.6318   12.3724 N.am    1  UNL1       -0.2779
      4 C          62.2766   88.8442   11.1672 C.3     1  UNL1        0.0935
      5 C          61.6787   87.6664   10.4564 C.3     1  UNL1        0.0219
      6 C          61.9481   86.2761   10.9509 C.3     1  UNL1        0.0078
      7 C          62.8155   86.0637   12.1561 C.3     1  UNL1        0.0419
      8 C          63.4134   87.2415   12.8669 C.3     1  UNL1        0.0953
      9 C          63.0850   84.6735   12.6507 C.ar    1  UNL1       -0.0209
     10 C          62.1368   84.0231   13.6139 C.ar    1  UNL1       -0.0042
     11 C          62.4064   82.6327   14.1085 C.ar    1  UNL1       -0.0003
     12 C          63.6241   81.8929   13.6397 C.ar    1  UNL1       -0.0000
     13 C          64.5723   82.5433   12.6764 C.ar    1  UNL1       -0.0003
     14 C          64.3027   83.9336   12.1819 C.ar    1  UNL1       -0.0042
     15 C          64.6091   89.5974   14.2883 C.3     1  UNL1        0.1972
     16 N          65.0473   90.7710   15.1133 N.ar    1  UNL1       -0.2530
     17 C          64.2445   91.4422   16.1880 C.ar    1  UNL1        0.4224
     18 O          62.8626   91.0576   16.6265 O.2     1  UNL1       -0.2226
     19 O          65.0664   92.5655   16.7472 O.2     1  UNL1       -0.4068
     20 C          66.3770   92.5886   16.0181 C.ar    1  UNL1        0.1661
     21 C          67.5797   93.4762   16.1433 C.ar    1  UNL1        0.0400
     22 C          68.7706   93.2548   15.2586 C.ar    1  UNL1        0.0146
     23 C          68.7588   92.1457   14.2488 C.ar    1  UNL1        0.0593
     24 CL         69.9498   91.9243   13.3641 Cl      1  UNL1       -0.0822
     25 C          67.5562   91.2581   14.1236 C.ar    1  UNL1        0.0319
     26 C          66.3653   91.4795   15.0083 C.ar    1  UNL1        0.1013
     27 C          64.2807   87.0291   14.0721 C.3     1  UNL1        0.0926
     28 N          63.6549   86.7642   15.4093 N.3     1  UNL1       -0.2670
     29 C          63.2091   87.9098   16.2689 C.3     1  UNL1        0.1047
     30 C          62.5833   87.6449   17.6062 C.3     1  UNL1        0.1595
     31 O          62.4032   86.2344   18.0838 O.3     1  UNL1       -0.3508
     32 C          62.8490   85.0889   17.2241 C.3     1  UNL1        0.1595
     33 C          63.4748   85.3537   15.8869 C.3     1  UNL1        0.1047
@<TRIPOS>BOND
     1     1     2    2
     2     2    15    1
     3    15    16    1
     4    16    17   ar
     5    17    18    2
     6    17    19   ar
     7    19    20   ar
     8    20    21   ar
     9    21    22   ar
    10    22    23   ar
    11    23    24    1
    12    23    25   ar
    13    25    26   ar
    14     2     3   am
    15     3     4    1
    16     4     5    1
    17     5     6    1
    18     6     7    1
    19     7     9    1
    20     9    10   ar
    21    10    11   ar
    22    11    12   ar
    23    12    13   ar
    24    13    14   ar
    25     7     8    1
    26     8    27    1
    27    27    28    1
    28    28    29    1
    29    29    30    1
    30    30    31    1
    31    31    32    1
    32    32    33    1
    33    26    16   ar
    34     8     3    1
    35    33    28    1
    36    26    20   ar
    37    14     9   ar
@<TRIPOS>MOLECULE
*****
 33 37 0 0 0
SMALL
GASTEIGER

@<TRIPOS>ATOM
      1 O          61.8504   90.7277   12.0540 O.2     1  UNL1       -0.2728
      2 C          62.4623   89.3644   12.1851 C.2     1  UNL1        0.2489
      3 N          61.9547   88.2305   11.3445 N.am    1  UNL1       -0.2779
      4 C          60.8351   88.4598   10.3730 C.3     1  UNL1        0.0935
      5 C          60.3275   87.3260    9.5324 C.3     1  UNL1        0.0219
      6 C          60.9393   85.9627    9.6634 C.3     1  UNL1        0.0078
      7 C          62.0589   85.7334   10.6350 C.3     1  UNL1        0.0419
      8 C          62.5665   86.8673   11.4756 C.3     1  UNL1        0.0953
      9 C          62.6708   84.3702   10.7660 C.ar    1  UNL1       -0.0209
     10 C          63.8510   83.9933    9.9204 C.ar    1  UNL1       -0.0042
     11 C          64.4629   82.6300   10.0516 C.ar    1  UNL1       -0.0003
     12 C          63.8946   81.6437   11.0283 C.ar    1  UNL1       -0.0000
     13 C          62.7144   82.0205   11.8739 C.ar    1  UNL1       -0.0003
     14 C          62.1025   83.3837   11.7428 C.ar    1  UNL1       -0.0042
     15 C          63.5818   89.1351   13.1567 C.3     1  UNL1        0.1972
     16 N          64.1895   90.2951   13.8883 N.ar    1  UNL1       -0.2530
     17 C          64.1317   90.5321   15.3683 C.ar    1  UNL1        0.4224
     18 O          63.4562   89.6506   16.3767 O.2     1  UNL1       -0.2226
     19 O          64.8681   91.8052   15.6629 O.2     1  UNL1       -0.4068
     20 C          65.3810   92.3551   14.3650 C.ar    1  UNL1        0.1661
     21 C          66.1757   93.5851   14.0402 C.ar    1  UNL1        0.0400
     22 C          66.5510   93.8818   12.6186 C.ar    1  UNL1        0.0146
     23 C          66.1315   92.9484   11.5217 C.ar    1  UNL1        0.0593
     24 CL         66.5069   93.2452   10.1000 Cl      1  UNL1       -0.0822
     25 C          65.3368   91.7185   11.8465 C.ar    1  UNL1        0.0319
     26 C          64.9615   91.4218   13.2682 C.ar    1  UNL1        0.1013
     27 C          63.6861   86.6379   12.4471 C.3     1  UNL1        0.0926
     28 N          63.4003   86.0420   13.7937 N.3     1  UNL1       -0.2670
     29 C          64.2027   86.4674   14.9876 C.3     1  UNL1        0.1047
     30 C          63.9170   85.8715   16.3342 C.3     1  UNL1        0.1595
     31 O          62.8290   84.8503   16.4870 O.3     1  UNL1       -0.3508
     32 C          62.0267   84.4250   15.2930 C.3     1  UNL1        0.1595
     33 C          62.3123   85.0208   13.9464 C.3     1  UNL1        0.1047
@<TRIPOS>BOND
     1     1     2    2
     2     2    15    1
     3    15    16    1
     4    16    17   ar
     5    17    18    2
     6    17    19   ar
     7    19    20   ar
     8    20    21   ar
     9    21    22   ar
    10    22    23   ar
    11    23    24    1
    12    23    25   ar
    13    25    26   ar
    14     2     3   am
    15     3     4    1
    16     4     5    1
    17     5     6    1
    18     6     7    1
    19     7     9    1
    20     9    10   ar
    21    10    11   ar
    22    11    12   ar
    23    12    13   ar
    24    13    14   ar
    25     7     8    1
    26     8    27    1
    27    27    28    1
    28    28    29    1
    29    29    30    1
    30    30    31    1
    31    31    32    1
    32    32    33    1
    33    26    16   ar
    34     8     3    1
    35    33    28    1
    36    26    20   ar
    37    14     9   ar
@<TRIPOS>MOLECULE
*****
 33 37 0 0 0
SMALL
GASTEIGER

@<TRIPOS>ATOM
      1 O          64.2202   88.9848   14.9310 O.2     1  UNL1       -0.2728
      2 C          63.5703   88.8376   13.5871 C.2     1  UNL1        0.2489
      3 N          63.4278   87.4788   12.9679 N.am    1  UNL1       -0.2779
      4 C          63.9350   86.2674   13.6925 C.3     1  UNL1        0.0935
      5 C          63.7924   84.9086   13.0733 C.3     1  UNL1        0.0219
      6 C          63.1426   84.7613   11.7294 C.3     1  UNL1        0.0078
      7 C          62.6353   85.9728   11.0048 C.3     1  UNL1        0.0419
      8 C          62.7779   87.3315   11.6240 C.3     1  UNL1        0.0953
      9 C          61.9855   85.8255    9.6609 C.ar    1  UNL1       -0.0209
     10 C          60.5663   86.2684    9.4614 C.ar    1  UNL1       -0.0042
     11 C          59.9165   86.1212    8.1175 C.ar    1  UNL1       -0.0003
     12 C          60.6859   85.5310    6.9730 C.ar    1  UNL1       -0.0000
     13 C          62.1051   85.0881    7.1725 C.ar    1  UNL1       -0.0003
     14 C          62.7548   85.2354    8.5164 C.ar    1  UNL1       -0.0042
     15 C          63.0631   90.0490   12.8626 C.3     1  UNL1        0.1972
     16 N          64.0245   91.1032   12.3994 N.ar    1  UNL1       -0.2530
     17 C          64.1532   91.6251   10.9990 C.ar    1  UNL1        0.4224
     18 O          63.3432   91.1844    9.8159 O.2     1  UNL1       -0.2226
     19 O          65.2342   92.6650   10.9894 O.2     1  UNL1       -0.4068
     20 C          65.7735   92.7858   12.3839 C.ar    1  UNL1        0.1661
     21 C          66.8488   93.6500   12.9728 C.ar    1  UNL1        0.0400
     22 C          67.1765   93.5490   14.4330 C.ar    1  UNL1        0.0146
     23 C          66.4288   92.5838   15.3044 C.ar    1  UNL1        0.0593
     24 CL         66.7565   92.4828   16.7647 Cl      1  UNL1       -0.0822
     25 C          65.3535   91.7196   14.7156 C.ar    1  UNL1        0.0319
     26 C          65.0259   91.8206   13.2553 C.ar    1  UNL1        0.1013
     27 C          62.2707   88.5430   10.8994 C.3     1  UNL1        0.0926
     28 N          60.9445   89.1379   11.2698 N.3     1  UNL1       -0.2670
     29 C          60.5613   90.4941   10.7561 C.3     1  UNL1        0.1047
     30 C          59.2350   91.0892   11.1265 C.3     1  UNL1        0.1595
     31 O          58.2921   90.3281   12.0105 O.3     1  UNL1       -0.3508
     32 C          58.6754   88.9718   12.5241 C.3     1  UNL1        0.1595
     33 C          60.0016   88.3768   12.1538 C.3     1  UNL1        0.1047
@<TRIPOS>BOND
     1     1     2    2
     2     2    15    1
     3    15    16    1
     4    16    17   ar
     5    17    18    2
     6    17    19   ar
     7    19    20   ar
     8    20    21   ar
     9    21    22   ar
    10    22    23   ar
    11    23    24    1
    12    23    25   ar
    13    25    26   ar
    14     2     3   am
    15     3     4    1
    16     4     5    1
    17     5     6    1
    18     6     7    1
    19     7     9    1
    20     9    10   ar
    21    10    11   ar
    22    11    12   ar
    23    12    13   ar
    24    13    14   ar
    25     7     8    1
    26     8    27    1
    27    27    28    1
    28    28    29    1
    29    29    30    1
    30    30    31    1
    31    31    32    1
    32    32    33    1
    33    26    16   ar
    34     8     3    1
    35    33    28    1
    36    26    20   ar
    37    14     9   ar
@<TRIPOS>MOLECULE
*****
 33 37 0 0 0
SMALL
GASTEIGER

@<TRIPOS>ATOM
      1 O          64.3041   83.2764    9.6821 O.2     1  UNL1       -0.2728
      2 C          63.6154   84.3855   10.4209 C.2     1  UNL1        0.2489
      3 N          62.6287   85.2619    9.7079 N.am    1  UNL1       -0.2779
      4 C          62.3306   85.0292    8.2564 C.3     1  UNL1        0.0935
      5 C          61.3438   85.9055    7.5435 C.3     1  UNL1        0.0219
      6 C          60.6551   87.0146    8.2821 C.3     1  UNL1        0.0078
      7 C          60.9532   87.2474    9.7336 C.3     1  UNL1        0.0419
      8 C          61.9400   86.3710   10.4465 C.3     1  UNL1        0.0953
      9 C          60.2645   88.3564   10.4723 C.ar    1  UNL1       -0.0209
     10 C          59.4601   88.0527   11.7014 C.ar    1  UNL1       -0.0042
     11 C          58.7714   89.1619   12.4400 C.ar    1  UNL1       -0.0003
     12 C          58.8872   90.5747   11.9496 C.ar    1  UNL1       -0.0000
     13 C          59.6917   90.8784   10.7205 C.ar    1  UNL1       -0.0003
     14 C          60.3803   89.7693    9.9819 C.ar    1  UNL1       -0.0042
     15 C          63.9135   84.6182   11.8723 C.3     1  UNL1        0.1972
     16 N          63.4972   83.6035   12.8956 N.ar    1  UNL1       -0.2530
     17 C          63.3492   83.8461   14.3684 C.ar    1  UNL1        0.4224
     18 O          63.5915   85.1461   15.0766 O.2     1  UNL1       -0.2226
     19 O          62.9163   82.5606   15.0087 O.2     1  UNL1       -0.4068
     20 C          62.7968   81.5235   13.9317 C.ar    1  UNL1        0.1661
     21 C          62.4074   80.0754   13.9714 C.ar    1  UNL1        0.0400
     22 C          62.3771   79.2720   12.7051 C.ar    1  UNL1        0.0146
     23 C          62.7361   79.9165   11.3991 C.ar    1  UNL1        0.0593
     24 CL         62.7058   79.1130   10.1328 Cl      1  UNL1       -0.0822
     25 C          63.1255   81.3646   11.3594 C.ar    1  UNL1        0.0319
     26 C          63.1558   82.1680   12.6256 C.ar    1  UNL1        0.1013
     27 C          62.2380   86.6037   11.8981 C.3     1  UNL1        0.0926
     28 N          62.9251   87.8652   12.3298 N.3     1  UNL1       -0.2670
     29 C          63.6634   87.9082   13.6348 C.3     1  UNL1        0.1047
     30 C          64.3505   89.1698   14.0667 C.3     1  UNL1        0.1595
     31 O          64.2993   90.3883   13.1935 O.3     1  UNL1       -0.3508
     32 C          63.5610   90.3453   11.8884 C.3     1  UNL1        0.1595
     33 C          62.8739   89.0838   11.4566 C.3     1  UNL1        0.1047
@<TRIPOS>BOND
     1     1     2    2
     2     2    15    1
     3    15    16    1
     4    16    17   ar
     5    17    18    2
     6    17    19   ar
     7    19    20   ar
     8    20    21   ar
     9    21    22   ar
    10    22    23   ar
    11    23    24    1
    12    23    25   ar
    13    25    26   ar
    14     2     3   am
    15     3     4    1
    16     4     5    1
    17     5     6    1
    18     6     7    1
    19     7     9    1
    20     9    10   ar
    21    10    11   ar
    22    11    12   ar
    23    12    13   ar
    24    13    14   ar
    25     7     8    1
    26     8    27    1
    27    27    28    1
    28    28    29    1
    29    29    30    1
    30    30    31    1
    31    31    32    1
    32    32    33    1
    33    26    16   ar
    34     8     3    1
    35    33    28    1
    36    26    20   ar
    37    14     9   ar
@<TRIPOS>MOLECULE
*****
 33 37 0 0 0
SMALL
GASTEIGER

@<TRIPOS>ATOM
      1 O          60.5303   86.4089   10.2914 O.2     1  UNL1       -0.2728
      2 C          61.6613   86.9452   11.1180 C.2     1  UNL1        0.2489
      3 N          61.7805   88.4210   11.3584 N.am    1  UNL1       -0.2779
      4 C          60.7687   89.3605   10.7722 C.3     1  UNL1        0.0935
      5 C          60.8879   90.8363   11.0126 C.3     1  UNL1        0.0219
      6 C          62.0188   91.3727   11.8391 C.3     1  UNL1        0.0078
      7 C          63.0306   90.4332   12.4253 C.3     1  UNL1        0.0419
      8 C          62.9115   88.9574   12.1849 C.3     1  UNL1        0.0953
      9 C          64.1616   90.9695   13.2518 C.ar    1  UNL1       -0.0209
     10 C          65.4298   91.4170   12.5874 C.ar    1  UNL1       -0.0042
     11 C          66.5608   91.9533   13.4141 C.ar    1  UNL1       -0.0003
     12 C          66.4236   92.0420   14.9052 C.ar    1  UNL1       -0.0000
     13 C          65.1555   91.5945   15.5696 C.ar    1  UNL1       -0.0003
     14 C          64.0245   91.0582   14.7430 C.ar    1  UNL1       -0.0042
     15 C          62.6731   86.0057   11.7042 C.3     1  UNL1        0.1972
     16 N          62.9652   84.6999   11.0263 N.ar    1  UNL1       -0.2530
     17 C          63.4294   84.5259    9.6106 C.ar    1  UNL1        0.4224
     18 O          63.6828   85.6271    8.6241 O.2     1  UNL1       -0.2226
     19 O          63.5955   83.0573    9.3545 O.2     1  UNL1       -0.4068
     20 C          63.2341   82.3237   10.6120 C.ar    1  UNL1        0.1661
     21 C          63.2093   80.8624   10.9496 C.ar    1  UNL1        0.0400
     22 C          62.7951   80.4164   12.3205 C.ar    1  UNL1        0.0146
     23 C          62.4055   81.4316   13.3537 C.ar    1  UNL1        0.0593
     24 CL         61.9912   80.9855   14.7247 Cl      1  UNL1       -0.0822
     25 C          62.4303   82.8928   13.0161 C.ar    1  UNL1        0.0319
     26 C          62.8445   83.3389   11.6452 C.ar    1  UNL1        0.1013
     27 C          63.9233   88.0179   12.7711 C.3     1  UNL1        0.0926
     28 N          63.7527   87.5110   14.1725 N.3     1  UNL1       -0.2670
     29 C          64.0571   86.0778   14.4939 C.3     1  UNL1        0.1047
     30 C          63.8865   85.5708   15.8953 C.3     1  UNL1        0.1595
     31 O          63.4116   86.4971   16.9754 O.3     1  UNL1       -0.3508
     32 C          63.1072   87.9303   16.6539 C.3     1  UNL1        0.1595
     33 C          63.2777   88.4373   15.2525 C.3     1  UNL1        0.1047
@<TRIPOS>BOND
     1     1     2    2
     2     2    15    1
     3    15    16    1
     4    16    17   ar
     5    17    18    2
     6    17    19   ar
     7    19    20   ar
     8    20    21   ar
     9    21    22   ar
    10    22    23   ar
    11    23    24    1
    12    23    25   ar
    13    25    26   ar
    14     2     3   am
    15     3     4    1
    16     4     5    1
    17     5     6    1
    18     6     7    1
    19     7     9    1
    20     9    10   ar
    21    10    11   ar
    22    11    12   ar
    23    12    13   ar
    24    13    14   ar
    25     7     8    1
    26     8    27    1
    27    27    28    1
    28    28    29    1
    29    29    30    1
    30    30    31    1
    31    31    32    1
    32    32    33    1
    33    26    16   ar
    34     8     3    1
    35    33    28    1
    36    26    20   ar
    37    14     9   ar
