@<TRIPOS>MOLECULE
*****
 31 34 0 0 0
SMALL
GASTEIGER

@<TRIPOS>ATOM
      1 C          63.4519   86.8468   13.0367 C.ar    1  UNL1       -0.0100
      2 C          63.5639   88.3403   13.1205 C.ar    1  UNL1       -0.0075
      3 C          63.2049   89.1870   11.9355 C.ar    1  UNL1       -0.0200
      4 C          62.7340   88.5403   10.6667 C.ar    1  UNL1       -0.0045
      5 C          62.6220   87.0469   10.5828 C.ar    1  UNL1       -0.0035
      6 C          62.9809   86.2001   11.7678 C.ar    1  UNL1       -0.0036
      7 C          62.1510   86.4002    9.3139 C.2     1  UNL1       -0.0011
      8 C          63.0479   85.4481    8.5797 C.2     1  UNL1        0.0472
      9 C          62.5770   84.8014    7.3108 C.2     1  UNL1        0.2354
     10 N          61.2093   85.1068    6.7762 N.2     1  UNL1       -0.0320
     11 C          60.3124   86.0589    7.5105 C.2     1  UNL1        0.3872
     12 N          58.9232   86.5495    7.2279 N.2     1  UNL1        0.0820
     13 N          58.5357   87.4994    8.3222 N.2     1  UNL1       -0.0337
     14 C          59.6852   87.5958    9.2810 C.2     1  UNL1        0.1921
     15 C          60.7832   86.7055    8.7793 C.3     1  UNL1        0.1845
     16 C          59.7290   88.4352   10.5234 C.3     1  UNL1        0.4355
     17 F          59.7729   89.2747   11.7658 F       1  UNL1       -0.1645
     18 F          59.7691   89.6770    9.6830 F       1  UNL1       -0.1645
     19 F          59.7036   87.5336   11.5278 F       1  UNL1       -0.1645
     20 C          63.8108   86.0001   14.2216 C.3     1  UNL1        0.0980
     21 C          64.3485   85.6152   15.5680 C.3     1  UNL1        0.0196
     22 C          64.4503   87.0360   15.0979 C.3     1  UNL1        0.0196
     23 N          62.7811   83.3400   13.2921 N.1     1  UNL1       -0.1956
     24 C          63.2960   84.6701   13.7569 C.1     1  UNL1        0.0752
     25 C          63.3169   90.6805   12.0194 C.3     1  UNL1        0.0581
     26 C          64.0058   91.3163   13.1904 C.3     1  UNL1        0.1440
     27 O          63.3303   91.3520   14.5292 O.3     1  UNL1       -0.3816
     28 H          62.4619   90.9247   14.4646 H       1  UNL1        0.2105
     29 C          65.3703   91.9165   13.0226 C.3     1  UNL1        0.1666
     30 O          65.8158   93.0301   13.9233 O.3     1  UNL1       -0.3795
     31 H          65.2715   93.8160   13.7593 H       1  UNL1        0.2105
@<TRIPOS>BOND
     1    23    24    3
     2    24    20    1
     3    20     1    1
     4     1     2   ar
     5     2     3   ar
     6     3    25    1
     7    25    26    1
     8    26    27    1
     9    26    29    1
    10    29    30    1
    11     3     4   ar
    12     4     5   ar
    13     5     7    1
    14     7     8    2
    15     8     9    1
    16     9    10    2
    17    10    11    1
    18    11    12    2
    19    12    13    1
    20    13    14    2
    21    14    16    1
    22    16    17    1
    23    16    18    1
    24    16    19    1
    25    14    15    1
    26     5     6   ar
    27    20    21    1
    28    21    22    1
    29    22    20    1
    30     6     1   ar
    31    15     7    1
    32    15    11    1
    33    27    28    1
    34    30    31    1
@<TRIPOS>MOLECULE
*****
 31 34 0 0 0
SMALL
GASTEIGER

@<TRIPOS>ATOM
      1 C          65.4137   91.0053   14.0569 C.ar    1  UNL1       -0.0100
      2 C          64.5756   91.4256   12.8860 C.ar    1  UNL1       -0.0075
      3 C          63.5825   90.4705   12.2932 C.ar    1  UNL1       -0.0200
      4 C          63.4274   89.0951   12.8713 C.ar    1  UNL1       -0.0045
      5 C          64.2655   88.6748   14.0422 C.ar    1  UNL1       -0.0035
      6 C          65.2586   89.6298   14.6350 C.ar    1  UNL1       -0.0036
      7 C          64.1104   87.2993   14.6203 C.2     1  UNL1       -0.0011
      8 C          64.5745   86.1027   13.8438 C.2     1  UNL1        0.0472
      9 C          64.4194   84.7273   14.4218 C.2     1  UNL1        0.2354
     10 N          63.8003   84.5484   15.7762 N.2     1  UNL1       -0.0320
     11 C          63.3362   85.7450   16.5527 C.2     1  UNL1        0.3872
     12 N          62.6934   85.8787   17.9015 N.2     1  UNL1        0.0820
     13 N          62.4513   87.3368   18.1570 N.2     1  UNL1       -0.0337
     14 C          62.9444   88.1042   16.9662 C.2     1  UNL1        0.1921
     15 C          63.4912   87.1204   15.9747 C.3     1  UNL1        0.1845
     16 C          62.8986   89.5939   16.7966 C.3     1  UNL1        0.4355
     17 F          62.8528   91.0836   16.6270 F       1  UNL1       -0.1645
     18 F          61.7668   89.4483   15.8231 F       1  UNL1       -0.1645
     19 F          63.8769   90.0454   17.6098 F       1  UNL1       -0.1645
     20 C          66.4069   91.9604   14.6497 C.3     1  UNL1        0.0980
     21 C          67.0216   92.9455   15.5992 C.3     1  UNL1        0.0196
     22 C          65.6620   92.3786   15.8828 C.3     1  UNL1        0.0196
     23 N          68.5864   91.7873   12.5955 N.1     1  UNL1       -0.1956
     24 C          67.4966   91.8739   13.6226 C.1     1  UNL1        0.0752
     25 C          62.7444   90.8908   11.1224 C.3     1  UNL1        0.0581
     26 C          61.5750   90.0527   10.6977 C.3     1  UNL1        0.1440
     27 O          61.7523   88.9939    9.6500 O.3     1  UNL1       -0.3816
     28 H          62.6760   88.9831    9.3543 H       1  UNL1        0.2105
     29 C          60.2285   90.2733   11.3207 C.3     1  UNL1        0.1666
     30 O          59.9591   89.7905   12.7150 O.3     1  UNL1       -0.3795
     31 H          59.9894   88.8211   12.7331 H       1  UNL1        0.2105
@<TRIPOS>BOND
     1    23    24    3
     2    24    20    1
     3    20     1    1
     4     1     2   ar
     5     2     3   ar
     6     3    25    1
     7    25    26    1
     8    26    27    1
     9    26    29    1
    10    29    30    1
    11     3     4   ar
    12     4     5   ar
    13     5     7    1
    14     7     8    2
    15     8     9    1
    16     9    10    2
    17    10    11    1
    18    11    12    2
    19    12    13    1
    20    13    14    2
    21    14    16    1
    22    16    17    1
    23    16    18    1
    24    16    19    1
    25    14    15    1
    26     5     6   ar
    27    20    21    1
    28    21    22    1
    29    22    20    1
    30     6     1   ar
    31    15     7    1
    32    15    11    1
    33    27    28    1
    34    30    31    1
@<TRIPOS>MOLECULE
*****
 31 34 0 0 0
SMALL
GASTEIGER

@<TRIPOS>ATOM
      1 C          63.2478   88.7602   12.1802 C.ar    1  UNL1       -0.0100
      2 C          63.5715   87.8142   13.2984 C.ar    1  UNL1       -0.0075
      3 C          63.4046   86.3364   13.1026 C.ar    1  UNL1       -0.0200
      4 C          62.9139   85.8046   11.7887 C.ar    1  UNL1       -0.0045
      5 C          62.5902   86.7506   10.6705 C.ar    1  UNL1       -0.0035
      6 C          62.7571   88.2284   10.8662 C.ar    1  UNL1       -0.0036
      7 C          62.0995   86.2188    9.3565 C.2     1  UNL1       -0.0011
      8 C          62.9405   85.2510    8.5780 C.2     1  UNL1        0.0472
      9 C          62.4499   84.7192    7.2641 C.2     1  UNL1        0.2354
     10 N          61.1182   85.1551    6.7287 N.2     1  UNL1       -0.0320
     11 C          60.2772   86.1229    7.5072 C.2     1  UNL1        0.3872
     12 N          58.9326   86.7293    7.2347 N.2     1  UNL1        0.0820
     13 N          58.5922   87.6359    8.3802 N.2     1  UNL1       -0.0337
     14 C          59.7265   87.5898    9.3606 C.2     1  UNL1        0.1921
     15 C          60.7679   86.6547    8.8211 C.3     1  UNL1        0.1845
     16 C          59.8055   88.3461   10.6536 C.3     1  UNL1        0.4355
     17 F          59.8845   89.1024   11.9467 F       1  UNL1       -0.1645
     18 F          59.8132   89.6406    9.8960 F       1  UNL1       -0.1645
     19 F          59.8159   87.3803   11.5968 F       1  UNL1       -0.1645
     20 C          63.4147   90.2380   12.3759 C.3     1  UNL1        0.0980
     21 C          63.5939   91.6914   12.0515 C.3     1  UNL1        0.0196
     22 C          63.5081   90.6812   10.9459 C.3     1  UNL1        0.0196
     23 N          63.3439   90.3780   15.3719 N.1     1  UNL1       -0.1956
     24 C          63.3793   90.3080   13.8738 C.1     1  UNL1        0.0752
     25 C          63.7284   85.3904   14.2207 C.3     1  UNL1        0.0581
     26 C          64.7740   84.3321   14.0288 C.3     1  UNL1        0.1440
     27 O          66.1737   84.5638   14.5156 O.3     1  UNL1       -0.3816
     28 H          66.2321   85.4403   14.9270 H       1  UNL1        0.2105
     29 C          64.4198   83.0423   13.3500 C.3     1  UNL1        0.1666
     30 O          65.0584   82.6836   12.0410 O.3     1  UNL1       -0.3795
     31 H          64.7711   83.3103   11.3586 H       1  UNL1        0.2105
@<TRIPOS>BOND
     1    23    24    3
     2    24    20    1
     3    20     1    1
     4     1     2   ar
     5     2     3   ar
     6     3    25    1
     7    25    26    1
     8    26    27    1
     9    26    29    1
    10    29    30    1
    11     3     4   ar
    12     4     5   ar
    13     5     7    1
    14     7     8    2
    15     8     9    1
    16     9    10    2
    17    10    11    1
    18    11    12    2
    19    12    13    1
    20    13    14    2
    21    14    16    1
    22    16    17    1
    23    16    18    1
    24    16    19    1
    25    14    15    1
    26     5     6   ar
    27    20    21    1
    28    21    22    1
    29    22    20    1
    30     6     1   ar
    31    15     7    1
    32    15    11    1
    33    27    28    1
    34    30    31    1
@<TRIPOS>MOLECULE
*****
 31 34 0 0 0
SMALL
GASTEIGER

@<TRIPOS>ATOM
      1 C          62.5694   89.3962   11.4014 C.ar    1  UNL1       -0.0100
      2 C          61.2404   89.3292   10.7092 C.ar    1  UNL1       -0.0075
      3 C          60.5267   88.0160   10.5813 C.ar    1  UNL1       -0.0200
      4 C          61.1421   86.7699   11.1456 C.ar    1  UNL1       -0.0045
      5 C          62.4711   86.8369   11.8378 C.ar    1  UNL1       -0.0035
      6 C          63.1848   88.1500   11.9657 C.ar    1  UNL1       -0.0036
      7 C          63.0865   85.5907   12.4021 C.2     1  UNL1       -0.0011
      8 C          63.3225   85.4731   13.8788 C.2     1  UNL1        0.0472
      9 C          63.9378   84.2270   14.4431 C.2     1  UNL1        0.2354
     10 N          64.3172   83.0984   13.5308 N.2     1  UNL1       -0.0320
     11 C          64.0812   83.2160   12.0541 C.2     1  UNL1        0.3872
     12 N          64.3501   82.2757   10.9167 N.2     1  UNL1        0.0820
     13 N          63.9009   82.9407    9.6495 N.2     1  UNL1       -0.0337
     14 C          63.3544   84.2920   10.0037 C.2     1  UNL1        0.1921
     15 C          63.4658   84.4621   11.4898 C.3     1  UNL1        0.1845
     16 C          62.7947   85.2968    9.0408 C.3     1  UNL1        0.4355
     17 F          62.2350   86.3016    8.0778 F       1  UNL1       -0.1645
     18 F          61.4032   84.9053    9.4411 F       1  UNL1       -0.1645
     19 F          63.8880   85.8574    8.4814 F       1  UNL1       -0.1645
     20 C          63.2831   90.7093   11.5293 C.3     1  UNL1        0.0980
     21 C          63.9554   91.9920   11.1389 C.3     1  UNL1        0.0196
     22 C          63.4119   91.0778   10.0810 C.3     1  UNL1        0.0196
     23 N          63.5210   90.8843   14.5148 N.1     1  UNL1       -0.1956
     24 C          63.4020   90.7968   13.0220 C.1     1  UNL1        0.0752
     25 C          59.1977   87.9490    9.8891 C.3     1  UNL1        0.0581
     26 C          59.1346   87.7347    8.4057 C.3     1  UNL1        0.1440
     27 O          58.5737   86.4569    7.8557 O.3     1  UNL1       -0.3816
     28 H          58.2998   85.8824    8.5878 H       1  UNL1        0.2105
     29 C          59.6323   88.7983    7.4725 C.3     1  UNL1        0.1666
     30 O          58.7616   89.2779    6.3492 O.3     1  UNL1       -0.3795
     31 H          58.6252   88.5565    5.7152 H       1  UNL1        0.2105
@<TRIPOS>BOND
     1    23    24    3
     2    24    20    1
     3    20     1    1
     4     1     2   ar
     5     2     3   ar
     6     3    25    1
     7    25    26    1
     8    26    27    1
     9    26    29    1
    10    29    30    1
    11     3     4   ar
    12     4     5   ar
    13     5     7    1
    14     7     8    2
    15     8     9    1
    16     9    10    2
    17    10    11    1
    18    11    12    2
    19    12    13    1
    20    13    14    2
    21    14    16    1
    22    16    17    1
    23    16    18    1
    24    16    19    1
    25    14    15    1
    26     5     6   ar
    27    20    21    1
    28    21    22    1
    29    22    20    1
    30     6     1   ar
    31    15     7    1
    32    15    11    1
    33    27    28    1
    34    30    31    1
@<TRIPOS>MOLECULE
*****
 31 34 0 0 0
SMALL
GASTEIGER

@<TRIPOS>ATOM
      1 C          62.3108   86.7383   11.3433 C.ar    1  UNL1       -0.0100
      2 C          63.1370   87.5387   12.3060 C.ar    1  UNL1       -0.0075
      3 C          63.7475   86.8734   13.5038 C.ar    1  UNL1       -0.0200
      4 C          63.5316   85.4078   13.7390 C.ar    1  UNL1       -0.0045
      5 C          62.7054   84.6074   12.7763 C.ar    1  UNL1       -0.0035
      6 C          62.0950   85.2726   11.5785 C.ar    1  UNL1       -0.0036
      7 C          62.4896   83.1417   13.0116 C.2     1  UNL1       -0.0011
      8 C          61.8953   82.6693   14.3052 C.2     1  UNL1        0.0472
      9 C          61.6795   81.2037   14.5405 C.2     1  UNL1        0.2354
     10 N          62.0580   80.2105   13.4820 N.2     1  UNL1       -0.0320
     11 C          62.6522   80.6830   12.1884 C.2     1  UNL1        0.3872
     12 N          63.1197   79.9440   10.9695 N.2     1  UNL1        0.0820
     13 N          63.6243   80.9530    9.9809 N.2     1  UNL1       -0.0337
     14 C          63.4688   82.3155   10.5889 C.2     1  UNL1        0.1921
     15 C          62.8680   82.1486   11.9531 C.3     1  UNL1        0.1845
     16 C          63.8476   83.6165    9.9455 C.3     1  UNL1        0.4355
     17 F          64.2265   84.9175    9.3022 F       1  UNL1       -0.1645
     18 F          65.0129   83.7402   10.8818 F       1  UNL1       -0.1645
     19 F          62.9125   83.7918    8.9878 F       1  UNL1       -0.1645
     20 C          61.7004   87.4035   10.1455 C.3     1  UNL1        0.0980
     21 C          60.8925   87.5895    8.8954 C.3     1  UNL1        0.0196
     22 C          60.9200   86.2546    9.5789 C.3     1  UNL1        0.0196
     23 N          62.8371   90.1635   10.4464 N.1     1  UNL1       -0.1956
     24 C          62.2687   88.7835   10.2960 C.1     1  UNL1        0.0752
     25 C          64.5737   87.6738   14.4665 C.3     1  UNL1        0.0581
     26 C          63.9586   88.8247   15.2061 C.3     1  UNL1        0.1440
     27 O          63.0360   88.5673   16.3605 O.3     1  UNL1       -0.3816
     28 H          62.9455   87.6110   16.4950 H       1  UNL1        0.2105
     29 C          64.2660   90.2331   14.7914 C.3     1  UNL1        0.1666
     30 O          63.2085   91.0690   14.1335 O.3     1  UNL1       -0.3795
     31 H          62.9880   90.6895   13.2685 H       1  UNL1        0.2105
@<TRIPOS>BOND
     1    23    24    3
     2    24    20    1
     3    20     1    1
     4     1     2   ar
     5     2     3   ar
     6     3    25    1
     7    25    26    1
     8    26    27    1
     9    26    29    1
    10    29    30    1
    11     3     4   ar
    12     4     5   ar
    13     5     7    1
    14     7     8    2
    15     8     9    1
    16     9    10    2
    17    10    11    1
    18    11    12    2
    19    12    13    1
    20    13    14    2
    21    14    16    1
    22    16    17    1
    23    16    18    1
    24    16    19    1
    25    14    15    1
    26     5     6   ar
    27    20    21    1
    28    21    22    1
    29    22    20    1
    30     6     1   ar
    31    15     7    1
    32    15    11    1
    33    27    28    1
    34    30    31    1
@<TRIPOS>MOLECULE
*****
 31 34 0 0 0
SMALL
GASTEIGER

@<TRIPOS>ATOM
      1 C          62.3161   87.4704   11.3858 C.ar    1  UNL1       -0.0100
      2 C          63.0231   88.0572   12.5715 C.ar    1  UNL1       -0.0075
      3 C          63.7792   87.1651   13.5110 C.ar    1  UNL1       -0.0200
      4 C          63.8282   85.6863   13.2648 C.ar    1  UNL1       -0.0045
      5 C          63.1211   85.0995   12.0791 C.ar    1  UNL1       -0.0035
      6 C          62.3651   85.9915   11.1397 C.ar    1  UNL1       -0.0036
      7 C          63.1701   83.6206   11.8330 C.2     1  UNL1       -0.0011
      8 C          63.5238   83.0981   10.4721 C.2     1  UNL1        0.0472
      9 C          63.5728   81.6193   10.2259 C.2     1  UNL1        0.2354
     10 N          63.2681   80.6630   11.3406 N.2     1  UNL1       -0.0320
     11 C          62.9145   81.1854   12.7015 C.2     1  UNL1        0.3872
     12 N          62.5682   80.4901   13.9848 N.2     1  UNL1        0.0820
     13 N          62.3052   81.5393   15.0240 N.2     1  UNL1       -0.0337
     14 C          62.4889   82.8830   14.3830 C.2     1  UNL1        0.1921
     15 C          62.8655   82.6643   12.9477 C.3     1  UNL1        0.1845
     16 C          62.3249   84.2120   15.0588 C.3     1  UNL1        0.4355
     17 F          62.1609   85.5411   15.7346 F       1  UNL1       -0.1645
     18 F          63.6906   84.0732   15.6633 F       1  UNL1       -0.1645
     19 F          61.0965   84.6227   14.6781 F       1  UNL1       -0.1645
     20 C          61.5601   88.3625   10.4463 C.3     1  UNL1        0.0980
     21 C          60.5841   88.7962    9.3931 C.3     1  UNL1        0.0196
     22 C          60.6641   87.3526    9.7926 C.3     1  UNL1        0.0196
     23 N          62.8269   91.0019   11.1011 N.1     1  UNL1       -0.1956
     24 C          62.1935   89.6821   10.7737 C.1     1  UNL1        0.0752
     25 C          64.4862   87.7519   14.6966 C.3     1  UNL1        0.0581
     26 C          63.8938   88.9264   15.4175 C.3     1  UNL1        0.1440
     27 O          62.9270   88.7058   16.5430 O.3     1  UNL1       -0.3816
     28 H          62.7954   87.7538   16.6743 H       1  UNL1        0.2105
     29 C          64.2681   90.3214   15.0129 C.3     1  UNL1        0.1666
     30 O          63.2825   91.1783   14.2752 O.3     1  UNL1       -0.3795
     31 H          63.1125   90.7956   13.4002 H       1  UNL1        0.2105
@<TRIPOS>BOND
     1    23    24    3
     2    24    20    1
     3    20     1    1
     4     1     2   ar
     5     2     3   ar
     6     3    25    1
     7    25    26    1
     8    26    27    1
     9    26    29    1
    10    29    30    1
    11     3     4   ar
    12     4     5   ar
    13     5     7    1
    14     7     8    2
    15     8     9    1
    16     9    10    2
    17    10    11    1
    18    11    12    2
    19    12    13    1
    20    13    14    2
    21    14    16    1
    22    16    17    1
    23    16    18    1
    24    16    19    1
    25    14    15    1
    26     5     6   ar
    27    20    21    1
    28    21    22    1
    29    22    20    1
    30     6     1   ar
    31    15     7    1
    32    15    11    1
    33    27    28    1
    34    30    31    1
@<TRIPOS>MOLECULE
*****
 31 34 0 0 0
SMALL
GASTEIGER

@<TRIPOS>ATOM
      1 C          62.6086   88.2510   11.2422 C.ar    1  UNL1       -0.0100
      2 C          61.8560   87.9641    9.9768 C.ar    1  UNL1       -0.0075
      3 C          61.3587   86.5766    9.6981 C.ar    1  UNL1       -0.0200
      4 C          61.6140   85.4761   10.6848 C.ar    1  UNL1       -0.0045
      5 C          62.3666   85.7630   11.9502 C.ar    1  UNL1       -0.0035
      6 C          62.8639   87.1504   12.2290 C.ar    1  UNL1       -0.0036
      7 C          62.6218   84.6624   12.9370 C.2     1  UNL1       -0.0011
      8 C          62.2182   84.8327   14.3716 C.2     1  UNL1        0.0472
      9 C          62.4734   83.7322   15.3583 C.2     1  UNL1        0.2354
     10 N          63.1322   82.4613   14.9104 N.2     1  UNL1       -0.0320
     11 C          63.5359   82.2909   13.4758 C.2     1  UNL1        0.3872
     12 N          64.1982   81.1593   12.7471 N.2     1  UNL1        0.0820
     13 N          64.3523   81.5606   11.3100 N.2     1  UNL1       -0.0337
     14 C          63.7852   82.9401   11.1506 C.2     1  UNL1        0.1921
     15 C          63.2807   83.3914   12.4891 C.3     1  UNL1        0.1845
     16 C          63.7321   83.7296    9.8763 C.3     1  UNL1        0.4355
     17 F          63.6789   84.5193    8.6020 F       1  UNL1       -0.1645
     18 F          64.8680   84.5829   10.3576 F       1  UNL1       -0.1645
     19 F          62.7286   83.1565    9.1785 F       1  UNL1       -0.1645
     20 C          63.1059   89.6384   11.5209 C.3     1  UNL1        0.0980
     21 C          63.4610   91.0791   11.3014 C.3     1  UNL1        0.0196
     22 C          62.8689   90.2737   10.1829 C.3     1  UNL1        0.0196
     23 N          63.9254   89.3315   14.3905 N.1     1  UNL1       -0.1956
     24 C          63.5156   89.4849   12.9557 C.1     1  UNL1        0.0752
     25 C          60.6062   86.2897    8.4327 C.3     1  UNL1        0.0581
     26 C          59.4108   87.1188    8.0665 C.3     1  UNL1        0.1440
     27 O          58.1389   86.4512    7.6347 O.3     1  UNL1       -0.3816
     28 H          58.2585   85.4887    7.6473 H       1  UNL1        0.2105
     29 C          59.4875   88.6154    8.1323 C.3     1  UNL1        0.1666
     30 O          59.8931   89.3996    6.9197 O.3     1  UNL1       -0.3795
     31 H          60.8161   89.1993    6.6989 H       1  UNL1        0.2105
@<TRIPOS>BOND
     1    23    24    3
     2    24    20    1
     3    20     1    1
     4     1     2   ar
     5     2     3   ar
     6     3    25    1
     7    25    26    1
     8    26    27    1
     9    26    29    1
    10    29    30    1
    11     3     4   ar
    12     4     5   ar
    13     5     7    1
    14     7     8    2
    15     8     9    1
    16     9    10    2
    17    10    11    1
    18    11    12    2
    19    12    13    1
    20    13    14    2
    21    14    16    1
    22    16    17    1
    23    16    18    1
    24    16    19    1
    25    14    15    1
    26     5     6   ar
    27    20    21    1
    28    21    22    1
    29    22    20    1
    30     6     1   ar
    31    15     7    1
    32    15    11    1
    33    27    28    1
    34    30    31    1
@<TRIPOS>MOLECULE
*****
 31 34 0 0 0
SMALL
GASTEIGER

@<TRIPOS>ATOM
      1 C          62.9325   82.7958   13.6188 C.ar    1  UNL1       -0.0100
      2 C          63.5933   83.6056   14.6948 C.ar    1  UNL1       -0.0075
      3 C          63.6862   85.0968   14.5610 C.ar    1  UNL1       -0.0200
      4 C          63.1183   85.7781   13.3514 C.ar    1  UNL1       -0.0045
      5 C          62.4575   84.9684   12.2755 C.ar    1  UNL1       -0.0035
      6 C          62.3646   83.4772   12.4092 C.ar    1  UNL1       -0.0036
      7 C          61.8896   85.6498   11.0658 C.2     1  UNL1       -0.0011
      8 C          60.8858   86.7525   11.2283 C.2     1  UNL1        0.0472
      9 C          60.3179   87.4339   10.0187 C.2     1  UNL1        0.2354
     10 N          60.7538   87.0126    8.6467 N.2     1  UNL1       -0.0320
     11 C          61.7576   85.9099    8.4843 C.2     1  UNL1        0.3872
     12 N          62.3727   85.2837    7.2678 N.2     1  UNL1        0.0820
     13 N          63.3207   84.2153    7.7257 N.2     1  UNL1       -0.0337
     14 C          63.2916   84.1812    9.2250 C.2     1  UNL1        0.1921
     15 C          62.3255   85.2285    9.6938 C.3     1  UNL1        0.1845
     16 C          64.0886   83.2612   10.1016 C.3     1  UNL1        0.4355
     17 F          64.8855   82.3412   10.9783 F       1  UNL1       -0.1645
     18 F          63.1559   82.1349    9.7675 F       1  UNL1       -0.1645
     19 F          65.0765   84.0444   10.5843 F       1  UNL1       -0.1645
     20 C          62.8396   81.3047   13.7525 C.3     1  UNL1        0.0980
     21 C          63.2582   79.8651   13.8019 C.3     1  UNL1        0.0196
     22 C          64.2801   80.9354   13.5562 C.3     1  UNL1        0.0196
     23 N          59.8941   81.0076   14.2380 N.1     1  UNL1       -0.1956
     24 C          61.3669   81.1562   13.9952 C.1     1  UNL1        0.0752
     25 C          64.3470   85.9065   15.6370 C.3     1  UNL1        0.0581
     26 C          63.5827   86.9924   16.3348 C.3     1  UNL1        0.1440
     27 O          63.7081   88.4138   15.8725 O.3     1  UNL1       -0.3816
     28 H          64.3173   88.4562   15.1189 H       1  UNL1        0.2105
     29 C          62.6930   86.6567   17.4949 C.3     1  UNL1        0.1666
     30 O          61.2849   86.2002   17.2526 O.3     1  UNL1       -0.3795
     31 H          60.7732   86.9247   16.8600 H       1  UNL1        0.2105
@<TRIPOS>BOND
     1    23    24    3
     2    24    20    1
     3    20     1    1
     4     1     2   ar
     5     2     3   ar
     6     3    25    1
     7    25    26    1
     8    26    27    1
     9    26    29    1
    10    29    30    1
    11     3     4   ar
    12     4     5   ar
    13     5     7    1
    14     7     8    2
    15     8     9    1
    16     9    10    2
    17    10    11    1
    18    11    12    2
    19    12    13    1
    20    13    14    2
    21    14    16    1
    22    16    17    1
    23    16    18    1
    24    16    19    1
    25    14    15    1
    26     5     6   ar
    27    20    21    1
    28    21    22    1
    29    22    20    1
    30     6     1   ar
    31    15     7    1
    32    15    11    1
    33    27    28    1
    34    30    31    1
@<TRIPOS>MOLECULE
*****
 31 34 0 0 0
SMALL
GASTEIGER

@<TRIPOS>ATOM
      1 C          63.1547   88.0312   12.7064 C.ar    1  UNL1       -0.0100
      2 C          61.9043   88.4680   12.0025 C.ar    1  UNL1       -0.0075
      3 C          61.1095   87.4789   11.2024 C.ar    1  UNL1       -0.0200
      4 C          61.5652   86.0531   11.1063 C.ar    1  UNL1       -0.0045
      5 C          62.8156   85.6163   11.8103 C.ar    1  UNL1       -0.0035
      6 C          63.6104   86.6053   12.6103 C.ar    1  UNL1       -0.0036
      7 C          63.2713   84.1903   11.7142 C.2     1  UNL1       -0.0011
      8 C          63.6083   83.5992   10.3774 C.2     1  UNL1        0.0472
      9 C          64.0640   82.1733   10.2813 C.2     1  UNL1        0.2354
     10 N          64.1827   81.3386   11.5219 N.2     1  UNL1       -0.0320
     11 C          63.8457   81.9298   12.8586 C.2     1  UNL1        0.3872
     12 N          63.8667   81.3554   14.2442 N.2     1  UNL1        0.0820
     13 N          63.4239   82.4263   15.1966 N.2     1  UNL1       -0.0337
     14 C          63.1294   83.6625   14.3997 C.2     1  UNL1        0.1921
     15 C          63.3900   83.3557   12.9548 C.3     1  UNL1        0.1845
     16 C          62.6571   84.9751   14.9510 C.3     1  UNL1        0.4355
     17 F          62.1847   86.2878   15.5023 F       1  UNL1       -0.1645
     18 F          61.2813   84.7037   14.4186 F       1  UNL1       -0.1645
     19 F          63.7556   85.4981   15.5359 F       1  UNL1       -0.1645
     20 C          63.9495   89.0203   13.5065 C.3     1  UNL1        0.0980
     21 C          64.8034   89.5850   14.6028 C.3     1  UNL1        0.0196
     22 C          64.3956   88.1418   14.6376 C.3     1  UNL1        0.0196
     23 N          63.6094   91.4641   11.8000 N.1     1  UNL1       -0.1956
     24 C          63.7794   90.2421   12.6533 C.1     1  UNL1        0.0752
     25 C          59.8590   87.9157   10.4985 C.3     1  UNL1        0.0581
     26 C          59.9167   88.3391    9.0606 C.3     1  UNL1        0.1440
     27 O          60.2759   89.7523    8.7087 O.3     1  UNL1       -0.3816
     28 H          60.4392   90.2563    9.5213 H       1  UNL1        0.2105
     29 C          59.6152   87.3493    7.9746 C.3     1  UNL1        0.1666
     30 O          58.2765   86.6746    7.9253 O.3     1  UNL1       -0.3795
     31 H          58.1748   86.1008    8.7007 H       1  UNL1        0.2105
@<TRIPOS>BOND
     1    23    24    3
     2    24    20    1
     3    20     1    1
     4     1     2   ar
     5     2     3   ar
     6     3    25    1
     7    25    26    1
     8    26    27    1
     9    26    29    1
    10    29    30    1
    11     3     4   ar
    12     4     5   ar
    13     5     7    1
    14     7     8    2
    15     8     9    1
    16     9    10    2
    17    10    11    1
    18    11    12    2
    19    12    13    1
    20    13    14    2
    21    14    16    1
    22    16    17    1
    23    16    18    1
    24    16    19    1
    25    14    15    1
    26     5     6   ar
    27    20    21    1
    28    21    22    1
    29    22    20    1
    30     6     1   ar
    31    15     7    1
    32    15    11    1
    33    27    28    1
    34    30    31    1
