@<TRIPOS>MOLECULE
*****
 38 42 0 0 0
SMALL
GASTEIGER

@<TRIPOS>ATOM
      1 C          63.7726   91.1672   12.0947 C.ar    1  UNL1        0.1370
      2 C          64.8763   91.9884   12.6925 C.ar    1  UNL1        0.0367
      3 C          65.5595   93.0397   11.8690 C.ar    1  UNL1        0.0046
      4 C          65.3841   93.5265   10.4167 C.ar    1  UNL1        0.0178
      5 C          64.4411   92.4220   10.7918 C.ar    1  UNL1        0.0027
      6 C          63.3521   91.3972   10.6734 C.ar    1  UNL1        0.0413
      7 C          62.2483   90.5760   10.0756 C.3     1  UNL1        0.1721
      8 O          61.2630   90.0573    9.0705 O.3     1  UNL1       -0.3442
      9 C          60.5150   89.9037    7.7795 C.3     1  UNL1        0.1686
     10 C          60.0944   90.1337    6.3582 C.2     1  UNL1        0.0036
     11 C          60.0521   90.7196    4.9779 C.2     1  UNL1        0.0036
     12 C          60.3931   91.5907    3.8054 C.3     1  UNL1        0.1686
     13 O          61.0762   92.6419    2.9819 O.3     1  UNL1       -0.3442
     14 C          62.0191   93.7465    2.6067 C.3     1  UNL1        0.1721
     15 C          63.1082   94.7712    2.7252 C.ar    1  UNL1        0.0425
     16 C          64.2119   95.5924    3.3230 C.ar    1  UNL1        0.0158
     17 C          65.1972   96.1111    4.3280 C.ar    1  UNL1        0.0504
     18 C          65.2861   96.8206    2.9621 C.ar    1  UNL1        0.0178
     19 C          64.5381   96.6670    1.6710 C.ar    1  UNL1        0.0379
     20 C          63.4491   95.6423    1.5526 C.ar    1  UNL1        0.1370
     21 N          65.9452   96.2647    5.6191 N.pl3   1  UNL1       -0.2825
     22 C          66.3658   96.0347    7.0404 C.ar    1  UNL1        0.2207
     23 N          67.4695   96.8560    7.6382 N.ar    1  UNL1       -0.2120
     24 C          67.8901   96.6259    9.0595 C.ar    1  UNL1        0.1034
     25 C          67.2069   95.5747    9.8831 C.ar    1  UNL1        0.0399
     26 C          66.1032   94.7535    9.2853 C.ar    1  UNL1        0.0857
     27 N          65.6827   94.9835    7.8640 N.ar    1  UNL1       -0.2135
     28 H          66.5641   96.9897    5.3728 H       1  UNL1        0.1551
     29 C          63.9041   89.1080   13.6734 C.3     1  UNL1        0.2525
     30 O          63.0895   90.1160   12.9183 O.3     1  UNL1       -0.4717
     31 O          62.7010   95.4887    0.2615 O.3     1  UNL1       -0.4742
     32 C          63.4174   95.0160   -0.9687 C.3     1  UNL1        0.2226
     33 C          62.8006   93.9591   -1.8362 C.3     1  UNL1        0.1200
     34 N          61.4483   93.4055   -1.4970 N.3     1  UNL1       -0.2696
     35 C          61.1480   92.4156   -0.4109 C.3     1  UNL1        0.0722
     36 C          59.6730   92.1430   -0.4271 C.3     1  UNL1        0.0188
     37 C          59.0618   92.9645   -1.5232 C.3     1  UNL1        0.0188
     38 C          60.1591   93.7448   -2.1845 C.3     1  UNL1        0.0722
@<TRIPOS>BOND
     1    29    30    1
     2    30     1    1
     3     1     2   ar
     4     2     3   ar
     5     3     4   ar
     6     4     5   ar
     7     5     6   ar
     8     6     7    1
     9     7     8    1
    10     8     9    1
    11     9    10    1
    12    10    11    2
    13    11    12    1
    14    12    13    1
    15    13    14    1
    16    14    15    1
    17    15    16   ar
    18    16    17   ar
    19    17    18   ar
    20    18    19   ar
    21    19    20   ar
    22    20    31    1
    23    31    32    1
    24    32    33    1
    25    33    34    1
    26    34    35    1
    27    35    36    1
    28    36    37    1
    29    37    38    1
    30    17    21    1
    31    21    22    1
    32    22    23   ar
    33    23    24   ar
    34    24    25   ar
    35    25    26   ar
    36    26    27   ar
    37     6     1   ar
    38    20    15   ar
    39    38    34    1
    40    27    22   ar
    41    26     4    1
    42    21    28    1
@<TRIPOS>MOLECULE
*****
 38 42 0 0 0
SMALL
GASTEIGER

@<TRIPOS>ATOM
      1 C          63.9813   91.2640   12.2054 C.ar    1  UNL1        0.1370
      2 C          65.0905   92.1233   12.7356 C.ar    1  UNL1        0.0367
      3 C          65.7296   93.1529   11.8516 C.ar    1  UNL1        0.0046
      4 C          65.4992   93.5824   10.3889 C.ar    1  UNL1        0.0178
      5 C          64.5867   92.4788   10.8356 C.ar    1  UNL1        0.0027
      6 C          63.5110   91.4343   10.7913 C.ar    1  UNL1        0.0413
      7 C          62.4017   90.5750   10.2611 C.3     1  UNL1        0.1721
      8 O          61.3927   90.0044    9.3091 O.3     1  UNL1       -0.3442
      9 C          60.6056   89.7915    8.0501 C.3     1  UNL1        0.1686
     10 C          60.1354   89.9618    6.6359 C.2     1  UNL1        0.0036
     11 C          60.0388   90.4949    5.2371 C.2     1  UNL1        0.0036
     12 C          60.3274   91.3264    4.0226 C.3     1  UNL1        0.1686
     13 O          60.9664   92.3560    3.1386 O.3     1  UNL1       -0.3442
     14 C          61.8788   93.4596    2.6918 C.3     1  UNL1        0.1721
     15 C          62.9545   94.5041    2.7362 C.ar    1  UNL1        0.0425
     16 C          64.0638   95.3634    3.2663 C.ar    1  UNL1        0.0158
     17 C          65.0728   95.9339    4.2183 C.ar    1  UNL1        0.0504
     18 C          65.1059   96.5929    2.8250 C.ar    1  UNL1        0.0178
     19 C          64.3188   96.3800    1.5659 C.ar    1  UNL1        0.0379
     20 C          63.2431   95.3355    1.5216 C.ar    1  UNL1        0.1370
     21 N          65.8599   96.1469    5.4774 N.pl3   1  UNL1       -0.2825
     22 C          66.3302   95.9766    6.8916 C.ar    1  UNL1        0.2207
     23 N          67.4394   96.8359    7.4217 N.ar    1  UNL1       -0.2120
     24 C          67.9097   96.6655    8.8359 C.ar    1  UNL1        0.1034
     25 C          67.2706   95.6359    9.7199 C.ar    1  UNL1        0.0399
     26 C          66.1613   94.7766    9.1897 C.ar    1  UNL1        0.0857
     27 N          65.6911   94.9469    7.7756 N.ar    1  UNL1       -0.2135
     28 H          66.4588   96.8712    5.1841 H       1  UNL1        0.1551
     29 C          64.1070   89.6585   14.2442 C.3     1  UNL1        0.2525
     30 O          63.3422   90.2344   13.0894 O.3     1  UNL1       -0.4717
     31 O          62.4560   95.1226    0.2625 O.3     1  UNL1       -0.4742
     32 C          61.3020   96.0243   -0.0621 C.3     1  UNL1        0.2226
     33 C          59.9734   95.8098    0.6001 C.3     1  UNL1        0.1200
     34 N          58.9989   94.8250    0.0249 N.3     1  UNL1       -0.2696
     35 C          57.8254   95.1540   -0.8495 C.3     1  UNL1        0.0722
     36 C          57.1282   93.8708   -1.1917 C.3     1  UNL1        0.0188
     37 C          57.8708   92.7487   -0.5288 C.3     1  UNL1        0.0188
     38 C          59.0270   93.3386    0.2231 C.3     1  UNL1        0.0722
@<TRIPOS>BOND
     1    29    30    1
     2    30     1    1
     3     1     2   ar
     4     2     3   ar
     5     3     4   ar
     6     4     5   ar
     7     5     6   ar
     8     6     7    1
     9     7     8    1
    10     8     9    1
    11     9    10    1
    12    10    11    2
    13    11    12    1
    14    12    13    1
    15    13    14    1
    16    14    15    1
    17    15    16   ar
    18    16    17   ar
    19    17    18   ar
    20    18    19   ar
    21    19    20   ar
    22    20    31    1
    23    31    32    1
    24    32    33    1
    25    33    34    1
    26    34    35    1
    27    35    36    1
    28    36    37    1
    29    37    38    1
    30    17    21    1
    31    21    22    1
    32    22    23   ar
    33    23    24   ar
    34    24    25   ar
    35    25    26   ar
    36    26    27   ar
    37     6     1   ar
    38    20    15   ar
    39    38    34    1
    40    27    22   ar
    41    26     4    1
    42    21    28    1
@<TRIPOS>MOLECULE
*****
 38 42 0 0 0
SMALL
GASTEIGER

@<TRIPOS>ATOM
      1 C          63.7634   91.1667   12.1091 C.ar    1  UNL1        0.1370
      2 C          64.8618   91.9900   12.7138 C.ar    1  UNL1        0.0367
      3 C          65.5495   93.0412   11.8941 C.ar    1  UNL1        0.0046
      4 C          65.3838   93.5263   10.4401 C.ar    1  UNL1        0.0178
      5 C          64.4395   92.4209   10.8096 C.ar    1  UNL1        0.0027
      6 C          63.3527   91.3947   10.6846 C.ar    1  UNL1        0.0413
      7 C          62.2543   90.5714   10.0797 C.3     1  UNL1        0.1721
      8 O          61.2768   90.0504    9.0683 O.3     1  UNL1       -0.3442
      9 C          60.5382   89.8944    7.7721 C.3     1  UNL1        0.1686
     10 C          60.1275   90.1224    6.3475 C.2     1  UNL1        0.0036
     11 C          60.0943   90.7068    4.9664 C.2     1  UNL1        0.0036
     12 C          60.4425   91.5771    3.7954 C.3     1  UNL1        0.1686
     13 O          61.1302   92.6283    2.9756 O.3     1  UNL1       -0.3442
     14 C          62.0743   93.7337    2.6060 C.3     1  UNL1        0.1721
     15 C          63.1612   94.7599    2.7312 C.ar    1  UNL1        0.0425
     16 C          64.2595   95.5832    3.3359 C.ar    1  UNL1        0.0158
     17 C          65.2370   96.1042    4.3474 C.ar    1  UNL1        0.0504
     18 C          65.3348   96.8123    2.9814 C.ar    1  UNL1        0.0178
     19 C          64.5962   96.6564    1.6852 C.ar    1  UNL1        0.0379
     20 C          63.5093   95.6301    1.5601 C.ar    1  UNL1        0.1370
     21 N          65.9756   96.2601    5.6436 N.pl3   1  UNL1       -0.2825
     22 C          66.3864   96.0322    7.0682 C.ar    1  UNL1        0.2207
     23 N          67.4847   96.8554    7.6730 N.ar    1  UNL1       -0.2120
     24 C          67.8954   96.6275    9.0975 C.ar    1  UNL1        0.1034
     25 C          67.2078   95.5762    9.9172 C.ar    1  UNL1        0.0399
     26 C          66.1094   94.7530    9.3125 C.ar    1  UNL1        0.0857
     27 N          65.6987   94.9809    7.8880 N.ar    1  UNL1       -0.2135
     28 H          66.5953   96.9856    5.4010 H       1  UNL1        0.1551
     29 C          63.3361   90.0248   14.4033 C.3     1  UNL1        0.2525
     30 O          63.0758   90.1155   12.9288 O.3     1  UNL1       -0.4717
     31 O          62.7707   95.4742    0.2639 O.3     1  UNL1       -0.4742
     32 C          63.0848   94.3226   -0.6445 C.3     1  UNL1        0.2226
     33 C          62.5387   94.2987   -2.0413 C.3     1  UNL1        0.1200
     34 N          63.4299   93.9252   -3.1887 N.3     1  UNL1       -0.2696
     35 C          64.1626   94.8807   -4.0832 C.3     1  UNL1        0.0722
     36 C          64.9303   94.0768   -5.0903 C.3     1  UNL1        0.0188
     37 C          64.6721   92.6245   -4.8183 C.3     1  UNL1        0.0188
     38 C          63.7448   92.5308   -3.6430 C.3     1  UNL1        0.0722
@<TRIPOS>BOND
     1    29    30    1
     2    30     1    1
     3     1     2   ar
     4     2     3   ar
     5     3     4   ar
     6     4     5   ar
     7     5     6   ar
     8     6     7    1
     9     7     8    1
    10     8     9    1
    11     9    10    1
    12    10    11    2
    13    11    12    1
    14    12    13    1
    15    13    14    1
    16    14    15    1
    17    15    16   ar
    18    16    17   ar
    19    17    18   ar
    20    18    19   ar
    21    19    20   ar
    22    20    31    1
    23    31    32    1
    24    32    33    1
    25    33    34    1
    26    34    35    1
    27    35    36    1
    28    36    37    1
    29    37    38    1
    30    17    21    1
    31    21    22    1
    32    22    23   ar
    33    23    24   ar
    34    24    25   ar
    35    25    26   ar
    36    26    27   ar
    37     6     1   ar
    38    20    15   ar
    39    38    34    1
    40    27    22   ar
    41    26     4    1
    42    21    28    1
@<TRIPOS>MOLECULE
*****
 38 42 0 0 0
SMALL
GASTEIGER

@<TRIPOS>ATOM
      1 C          63.9171   91.1361   12.1282 C.ar    1  UNL1        0.1370
      2 C          62.8711   90.0751   12.3019 C.ar    1  UNL1        0.0367
      3 C          61.9595   89.7270   11.1627 C.ar    1  UNL1        0.0046
      4 C          61.8253   90.2466    9.7174 C.ar    1  UNL1        0.0178
      5 C          62.9151   90.9241   10.4943 C.ar    1  UNL1        0.0027
      6 C          64.0514   91.8490   10.8154 C.ar    1  UNL1        0.0413
      7 C          65.0974   92.9101   10.6417 C.3     1  UNL1        0.1721
      8 O          65.9269   93.9791    9.9943 O.3     1  UNL1       -0.3442
      9 C          66.4397   94.9273    8.9512 C.3     1  UNL1        0.1686
     10 C          66.5740   95.6402    7.6384 C.2     1  UNL1        0.0036
     11 C          66.3137   96.0319    6.2140 C.2     1  UNL1        0.0036
     12 C          65.6902   96.0551    4.8500 C.3     1  UNL1        0.1686
     13 O          64.7785   95.7071    3.7108 O.3     1  UNL1       -0.3442
     14 C          63.6889   95.0297    2.9338 C.3     1  UNL1        0.1721
     15 C          62.5525   94.1047    2.6128 C.ar    1  UNL1        0.0425
     16 C          61.5065   93.0437    2.7864 C.ar    1  UNL1        0.0158
     17 C          60.6771   91.9746    3.4338 C.ar    1  UNL1        0.0504
     18 C          60.2797   92.2548    1.9708 C.ar    1  UNL1        0.0178
     19 C          60.7925   93.2030    0.9277 C.ar    1  UNL1        0.0379
     20 C          61.9290   94.1280    1.2487 C.ar    1  UNL1        0.1370
     21 N          60.1643   91.0265    4.4769 N.pl3   1  UNL1       -0.2825
     22 C          60.0299   90.3135    5.7898 C.ar    1  UNL1        0.2207
     23 N          58.9839   89.2525    5.9634 N.ar    1  UNL1       -0.2120
     24 C          58.8496   88.5396    7.2763 C.ar    1  UNL1        0.1034
     25 C          59.7612   88.8876    8.4155 C.ar    1  UNL1        0.0399
     26 C          60.8071   89.9486    8.2419 C.ar    1  UNL1        0.0857
     27 N          60.9415   90.6615    6.9290 N.ar    1  UNL1       -0.2135
     28 H          59.4490   90.5819    3.9669 H       1  UNL1        0.1551
     29 C          65.0411   90.5054   14.3840 C.3     1  UNL1        0.2525
     30 O          64.8287   91.4842   13.2675 O.3     1  UNL1       -0.4717
     31 O          62.4418   95.0762    0.2057 O.3     1  UNL1       -0.4742
     32 C          63.5751   94.6669   -0.6877 C.3     1  UNL1        0.2226
     33 C          63.6957   95.2539   -2.0628 C.3     1  UNL1        0.1200
     34 N          64.0717   94.3787   -3.2216 N.3     1  UNL1       -0.2696
     35 C          64.7599   94.8258   -4.4772 C.3     1  UNL1        0.0722
     36 C          64.9390   93.6262   -5.3598 C.3     1  UNL1        0.0188
     37 C          64.3615   92.4379   -4.6497 C.3     1  UNL1        0.0188
     38 C          63.8254   92.9030   -3.3282 C.3     1  UNL1        0.0722
@<TRIPOS>BOND
     1    29    30    1
     2    30     1    1
     3     1     2   ar
     4     2     3   ar
     5     3     4   ar
     6     4     5   ar
     7     5     6   ar
     8     6     7    1
     9     7     8    1
    10     8     9    1
    11     9    10    1
    12    10    11    2
    13    11    12    1
    14    12    13    1
    15    13    14    1
    16    14    15    1
    17    15    16   ar
    18    16    17   ar
    19    17    18   ar
    20    18    19   ar
    21    19    20   ar
    22    20    31    1
    23    31    32    1
    24    32    33    1
    25    33    34    1
    26    34    35    1
    27    35    36    1
    28    36    37    1
    29    37    38    1
    30    17    21    1
    31    21    22    1
    32    22    23   ar
    33    23    24   ar
    34    24    25   ar
    35    25    26   ar
    36    26    27   ar
    37     6     1   ar
    38    20    15   ar
    39    38    34    1
    40    27    22   ar
    41    26     4    1
    42    21    28    1
@<TRIPOS>MOLECULE
*****
 38 42 0 0 0
SMALL
GASTEIGER

@<TRIPOS>ATOM
      1 C          64.2158   91.3168   12.1241 C.ar    1  UNL1        0.1370
      2 C          63.2081   90.2350   12.3775 C.ar    1  UNL1        0.0367
      3 C          62.2496   89.8344   11.2955 C.ar    1  UNL1        0.0046
      4 C          62.0292   90.3122    9.8464 C.ar    1  UNL1        0.0178
      5 C          63.1386   91.0368   10.5493 C.ar    1  UNL1        0.0027
      6 C          64.2650   91.9979   10.7886 C.ar    1  UNL1        0.0413
      7 C          65.2728   93.0797   10.5351 C.3     1  UNL1        0.1721
      8 O          66.0402   94.1516    9.8196 O.3     1  UNL1       -0.3442
      9 C          66.4747   95.0844    8.7282 C.3     1  UNL1        0.1686
     10 C          66.5240   95.7655    7.3927 C.2     1  UNL1        0.0036
     11 C          66.1820   96.1129    5.9741 C.2     1  UNL1        0.0036
     12 C          65.4901   96.0845    4.6436 C.3     1  UNL1        0.1686
     13 O          64.5316   95.6839    3.5615 O.3     1  UNL1       -0.3442
     14 C          63.4222   94.9593    2.8585 C.3     1  UNL1        0.1721
     15 C          62.2957   93.9982    2.6193 C.ar    1  UNL1        0.0425
     16 C          61.2880   92.9164    2.8727 C.ar    1  UNL1        0.0158
     17 C          60.5206   91.8445    3.5882 C.ar    1  UNL1        0.0504
     18 C          60.0428   92.0759    2.1408 C.ar    1  UNL1        0.0178
     19 C          60.4773   93.0087    1.0495 C.ar    1  UNL1        0.0379
     20 C          61.6038   93.9699    1.2887 C.ar    1  UNL1        0.1370
     21 N          60.0861   90.9117    4.6796 N.pl3   1  UNL1       -0.2825
     22 C          60.0368   90.2305    6.0152 C.ar    1  UNL1        0.2207
     23 N          59.0291   89.1488    6.2686 N.ar    1  UNL1       -0.2120
     24 C          58.9798   88.4676    7.6041 C.ar    1  UNL1        0.1034
     25 C          59.9383   88.8683    8.6862 C.ar    1  UNL1        0.0399
     26 C          60.9460   89.9500    8.4327 C.ar    1  UNL1        0.0857
     27 N          60.9953   90.6311    7.0972 N.ar    1  UNL1       -0.2135
     28 H          59.3580   90.4361    4.2182 H       1  UNL1        0.1551
     29 C          65.3930   90.8168   14.3855 C.3     1  UNL1        0.2525
     30 O          65.1743   91.7174   13.2062 O.3     1  UNL1       -0.4717
     31 O          62.0384   94.9027    0.1973 O.3     1  UNL1       -0.4742
     32 C          61.8990   94.4931   -1.2390 C.3     1  UNL1        0.2226
     33 C          60.7624   95.0219   -2.0627 C.3     1  UNL1        0.1200
     34 N          59.3691   94.5176   -1.8296 N.3     1  UNL1       -0.2696
     35 C          58.2891   95.2300   -1.0707 C.3     1  UNL1        0.0722
     36 C          57.0637   94.3650   -1.0866 C.3     1  UNL1        0.0188
     37 C          57.3863   93.1181   -1.8553 C.3     1  UNL1        0.0188
     38 C          58.8112   93.2125   -2.3145 C.3     1  UNL1        0.0722
@<TRIPOS>BOND
     1    29    30    1
     2    30     1    1
     3     1     2   ar
     4     2     3   ar
     5     3     4   ar
     6     4     5   ar
     7     5     6   ar
     8     6     7    1
     9     7     8    1
    10     8     9    1
    11     9    10    1
    12    10    11    2
    13    11    12    1
    14    12    13    1
    15    13    14    1
    16    14    15    1
    17    15    16   ar
    18    16    17   ar
    19    17    18   ar
    20    18    19   ar
    21    19    20   ar
    22    20    31    1
    23    31    32    1
    24    32    33    1
    25    33    34    1
    26    34    35    1
    27    35    36    1
    28    36    37    1
    29    37    38    1
    30    17    21    1
    31    21    22    1
    32    22    23   ar
    33    23    24   ar
    34    24    25   ar
    35    25    26   ar
    36    26    27   ar
    37     6     1   ar
    38    20    15   ar
    39    38    34    1
    40    27    22   ar
    41    26     4    1
    42    21    28    1
@<TRIPOS>MOLECULE
*****
 38 42 0 0 0
SMALL
GASTEIGER

@<TRIPOS>ATOM
      1 C          64.7398   91.7719   11.7857 C.ar    1  UNL1        0.1370
      2 C          63.8343   90.6395   12.1699 C.ar    1  UNL1        0.0367
      3 C          62.7745   90.1705   11.2176 C.ar    1  UNL1        0.0046
      4 C          62.3506   90.6142    9.8033 C.ar    1  UNL1        0.0178
      5 C          63.4949   91.4096   10.3583 C.ar    1  UNL1        0.0027
      6 C          64.5855   92.4354   10.4493 C.ar    1  UNL1        0.0413
      7 C          65.4910   93.5678   10.0651 C.3     1  UNL1        0.1721
      8 O          66.1022   94.6704    9.2522 O.3     1  UNL1       -0.3442
      9 C          66.3453   95.6100    8.1085 C.3     1  UNL1        0.1686
     10 C          66.1909   96.2734    6.7721 C.2     1  UNL1        0.0036
     11 C          65.6578   96.5806    5.4040 C.2     1  UNL1        0.0036
     12 C          64.8103   96.4945    4.1695 C.3     1  UNL1        0.1686
     13 O          63.7504   96.0255    3.2173 O.3     1  UNL1       -0.3442
     14 C          62.6062   95.2302    2.6622 C.3     1  UNL1        0.1721
     15 C          61.5155   94.2044    2.5713 C.ar    1  UNL1        0.0425
     16 C          60.6100   93.0719    2.9554 C.ar    1  UNL1        0.0158
     17 C          59.9989   91.9694    3.7683 C.ar    1  UNL1        0.0504
     18 C          59.3343   92.1529    2.3894 C.ar    1  UNL1        0.0178
     19 C          59.5773   93.0925    1.2457 C.ar    1  UNL1        0.0379
     20 C          60.6680   94.1183    1.3367 C.ar    1  UNL1        0.1370
     21 N          59.7558   91.0298    4.9120 N.pl3   1  UNL1       -0.2825
     22 C          59.9101   90.3663    6.2485 C.ar    1  UNL1        0.2207
     23 N          59.0046   89.2338    6.6326 N.ar    1  UNL1       -0.2120
     24 C          59.1589   88.5704    7.9690 C.ar    1  UNL1        0.1034
     25 C          60.2188   89.0395    8.9213 C.ar    1  UNL1        0.0399
     26 C          61.1243   90.1719    8.5371 C.ar    1  UNL1        0.0857
     27 N          60.9699   90.8353    7.2007 N.ar    1  UNL1       -0.2135
     28 H          59.0048   90.5077    4.5477 H       1  UNL1        0.1551
     29 C          65.6675   91.9591   14.2053 C.3     1  UNL1        0.2525
     30 O          65.7997   92.2410   12.7380 O.3     1  UNL1       -0.4717
     31 O          60.9111   95.0580    0.1930 O.3     1  UNL1       -0.4742
     32 C          61.2425   94.5157   -1.1658 C.3     1  UNL1        0.2226
     33 C          62.5133   93.7474   -1.3770 C.3     1  UNL1        0.1200
     34 N          63.7424   94.1005   -0.5929 N.3     1  UNL1       -0.2696
     35 C          64.4390   95.4290   -0.5965 C.3     1  UNL1        0.0722
     36 C          65.6177   95.3367    0.3266 C.3     1  UNL1        0.0188
     37 C          65.6496   93.9513    0.9006 C.3     1  UNL1        0.0188
     38 C          64.4906   93.1873    0.3323 C.3     1  UNL1        0.0722
@<TRIPOS>BOND
     1    29    30    1
     2    30     1    1
     3     1     2   ar
     4     2     3   ar
     5     3     4   ar
     6     4     5   ar
     7     5     6   ar
     8     6     7    1
     9     7     8    1
    10     8     9    1
    11     9    10    1
    12    10    11    2
    13    11    12    1
    14    12    13    1
    15    13    14    1
    16    14    15    1
    17    15    16   ar
    18    16    17   ar
    19    17    18   ar
    20    18    19   ar
    21    19    20   ar
    22    20    31    1
    23    31    32    1
    24    32    33    1
    25    33    34    1
    26    34    35    1
    27    35    36    1
    28    36    37    1
    29    37    38    1
    30    17    21    1
    31    21    22    1
    32    22    23   ar
    33    23    24   ar
    34    24    25   ar
    35    25    26   ar
    36    26    27   ar
    37     6     1   ar
    38    20    15   ar
    39    38    34    1
    40    27    22   ar
    41    26     4    1
    42    21    28    1
@<TRIPOS>MOLECULE
*****
 38 42 0 0 0
SMALL
GASTEIGER

@<TRIPOS>ATOM
      1 C          61.2064   94.1506    1.3590 C.ar    1  UNL1        0.1370
      2 C          60.0247   93.2408    1.1978 C.ar    1  UNL1        0.0367
      3 C          59.6197   92.3315    2.3199 C.ar    1  UNL1        0.0046
      4 C          60.1787   92.0824    3.7349 C.ar    1  UNL1        0.0178
      5 C          60.9460   93.1166    2.9658 C.ar    1  UNL1        0.0027
      6 C          61.9830   94.1510    2.6422 C.ar    1  UNL1        0.0413
      7 C          63.1647   95.0608    2.8035 C.3     1  UNL1        0.1721
      8 O          64.3485   95.7362    3.4299 O.3     1  UNL1       -0.3442
      9 C          65.3916   96.0958    4.4461 C.3     1  UNL1        0.1686
     10 C          66.1682   96.0962    5.7293 C.2     1  UNL1        0.0036
     11 C          66.5847   95.7373    7.1250 C.2     1  UNL1        0.0036
     12 C          66.5908   95.0626    8.4646 C.3     1  UNL1        0.1686
     13 O          66.1858   94.1532    9.5867 O.3     1  UNL1       -0.3442
     14 C          65.4186   93.1190   10.3558 C.3     1  UNL1        0.1721
     15 C          64.3815   92.0846   10.6793 C.ar    1  UNL1        0.0425
     16 C          63.1999   91.1749   10.5181 C.ar    1  UNL1        0.0158
     17 C          62.0161   90.4994    9.8917 C.ar    1  UNL1        0.0504
     18 C          62.3076   90.0159   11.3263 C.ar    1  UNL1        0.0178
     19 C          63.3507   90.3755   12.3425 C.ar    1  UNL1        0.0379
     20 C          64.3877   91.4099   12.0190 C.ar    1  UNL1        0.1370
     21 N          60.9730   90.1399    8.8756 N.pl3   1  UNL1       -0.2825
     22 C          60.1963   90.1394    7.5922 C.ar    1  UNL1        0.2207
     23 N          59.0146   89.2297    7.4311 N.ar    1  UNL1       -0.2120
     24 C          58.2380   89.2293    6.1478 C.ar    1  UNL1        0.1034
     25 C          58.6430   90.1386    5.0257 C.ar    1  UNL1        0.0399
     26 C          59.8247   91.0484    5.1869 C.ar    1  UNL1        0.0857
     27 N          60.6013   91.0488    6.4702 N.ar    1  UNL1       -0.2135
     28 H          60.4694   89.4610    9.3804 H       1  UNL1        0.1551
     29 C          62.4982   94.5490   -0.8596 C.3     1  UNL1        0.2525
     30 O          61.6114   95.0599    0.2369 O.3     1  UNL1       -0.4717
     31 O          65.4308   91.7695   13.0351 O.3     1  UNL1       -0.4742
     32 C          65.4665   91.0605   14.3566 C.3     1  UNL1        0.2226
     33 C          64.1936   90.8184   15.1123 C.3     1  UNL1        0.1200
     34 N          63.8757   89.4452   15.6257 N.3     1  UNL1       -0.2696
     35 C          63.1029   89.1267   16.8711 C.3     1  UNL1        0.0722
     36 C          63.0244   87.6342   16.9989 C.3     1  UNL1        0.0188
     37 C          63.7486   87.0304   15.8324 C.3     1  UNL1        0.0188
     38 C          64.2747   88.1497   14.9837 C.3     1  UNL1        0.0722
@<TRIPOS>BOND
     1    29    30    1
     2    30     1    1
     3     1     2   ar
     4     2     3   ar
     5     3     4   ar
     6     4     5   ar
     7     5     6   ar
     8     6     7    1
     9     7     8    1
    10     8     9    1
    11     9    10    1
    12    10    11    2
    13    11    12    1
    14    12    13    1
    15    13    14    1
    16    14    15    1
    17    15    16   ar
    18    16    17   ar
    19    17    18   ar
    20    18    19   ar
    21    19    20   ar
    22    20    31    1
    23    31    32    1
    24    32    33    1
    25    33    34    1
    26    34    35    1
    27    35    36    1
    28    36    37    1
    29    37    38    1
    30    17    21    1
    31    21    22    1
    32    22    23   ar
    33    23    24   ar
    34    24    25   ar
    35    25    26   ar
    36    26    27   ar
    37     6     1   ar
    38    20    15   ar
    39    38    34    1
    40    27    22   ar
    41    26     4    1
    42    21    28    1
@<TRIPOS>MOLECULE
*****
 38 42 0 0 0
SMALL
GASTEIGER

@<TRIPOS>ATOM
      1 C          61.1043   94.0976    1.4034 C.ar    1  UNL1        0.1370
      2 C          59.9238   93.1845    1.2525 C.ar    1  UNL1        0.0367
      3 C          59.5307   92.2746    2.3783 C.ar    1  UNL1        0.0046
      4 C          60.1022   92.0276    3.7887 C.ar    1  UNL1        0.0178
      5 C          60.8602   93.0636    3.0128 C.ar    1  UNL1        0.0027
      6 C          61.8916   94.1007    2.6802 C.ar    1  UNL1        0.0413
      7 C          63.0721   95.0138    2.8312 C.3     1  UNL1        0.1721
      8 O          64.2592   95.6927    3.4474 O.3     1  UNL1       -0.3442
      9 C          65.3098   96.0556    4.4547 C.3     1  UNL1        0.1686
     10 C          66.0971   96.0587    5.7314 C.2     1  UNL1        0.0036
     11 C          66.5263   95.7016    7.1237 C.2     1  UNL1        0.0036
     12 C          66.5454   95.0274    8.4634 C.3     1  UNL1        0.1686
     13 O          66.1523   94.1174    9.5892 O.3     1  UNL1       -0.3442
     14 C          65.3944   93.0815   10.3652 C.3     1  UNL1        0.1721
     15 C          64.3629   92.0443   10.6978 C.ar    1  UNL1        0.0425
     16 C          63.1825   91.1313   10.5468 C.ar    1  UNL1        0.0158
     17 C          61.9953   90.4523    9.9306 C.ar    1  UNL1        0.0504
     18 C          62.3001   89.9702   11.3629 C.ar    1  UNL1        0.0178
     19 C          63.3507   90.3331   12.3702 C.ar    1  UNL1        0.0379
     20 C          64.3821   91.3702   12.0376 C.ar    1  UNL1        0.1370
     21 N          60.9448   90.0895    8.9233 N.pl3   1  UNL1       -0.2825
     22 C          60.1574   90.0863    7.6465 C.ar    1  UNL1        0.2207
     23 N          58.9769   89.1733    7.4956 N.ar    1  UNL1       -0.2120
     24 C          58.1896   89.1702    6.2189 C.ar    1  UNL1        0.1034
     25 C          58.5827   90.0802    5.0931 C.ar    1  UNL1        0.0399
     26 C          59.7632   90.9932    5.2440 C.ar    1  UNL1        0.0857
     27 N          60.5505   90.9963    6.5208 N.ar    1  UNL1       -0.2135
     28 H          60.4473   89.4095    9.4326 H       1  UNL1        0.1551
     29 C          62.3841   94.5013   -0.8212 C.3     1  UNL1        0.2525
     30 O          61.4974   95.0076    0.2777 O.3     1  UNL1       -0.4717
     31 O          65.4327   91.7331   13.0449 O.3     1  UNL1       -0.4742
     32 C          65.3047   91.2646   14.4641 C.3     1  UNL1        0.2226
     33 C          65.6863   92.1765   15.5922 C.3     1  UNL1        0.1200
     34 N          67.1029   92.6516   15.7261 N.3     1  UNL1       -0.2696
     35 C          67.6292   93.9878   15.2932 C.3     1  UNL1        0.0722
     36 C          69.0933   94.0359   15.6160 C.3     1  UNL1        0.0188
     37 C          69.4717   92.7295   16.2483 C.3     1  UNL1        0.0188
     38 C          68.2415   91.8739   16.3163 C.3     1  UNL1        0.0722
@<TRIPOS>BOND
     1    29    30    1
     2    30     1    1
     3     1     2   ar
     4     2     3   ar
     5     3     4   ar
     6     4     5   ar
     7     5     6   ar
     8     6     7    1
     9     7     8    1
    10     8     9    1
    11     9    10    1
    12    10    11    2
    13    11    12    1
    14    12    13    1
    15    13    14    1
    16    14    15    1
    17    15    16   ar
    18    16    17   ar
    19    17    18   ar
    20    18    19   ar
    21    19    20   ar
    22    20    31    1
    23    31    32    1
    24    32    33    1
    25    33    34    1
    26    34    35    1
    27    35    36    1
    28    36    37    1
    29    37    38    1
    30    17    21    1
    31    21    22    1
    32    22    23   ar
    33    23    24   ar
    34    24    25   ar
    35    25    26   ar
    36    26    27   ar
    37     6     1   ar
    38    20    15   ar
    39    38    34    1
    40    27    22   ar
    41    26     4    1
    42    21    28    1
