@<TRIPOS>MOLECULE
*****
 32 36 0 0 0
SMALL
GASTEIGER

@<TRIPOS>ATOM
      1 C          62.5005   89.4907   11.4588 C.3     1  UNL1        0.0182
      2 C          63.2099   90.7676   11.1180 C.3     1  UNL1        0.0053
      3 C          64.0205   92.0289   11.0736 C.3     1  UNL1        0.0436
      4 C          64.6527   92.2213   12.4202 C.3     1  UNL1        0.1676
      5 C          64.2327   91.0789   13.2968 C.3     1  UNL1        0.0436
      6 C          63.3411   90.1804   12.4920 C.3     1  UNL1        0.0053
      7 C          60.5728   88.5549    9.9898 C.3     1  UNL1        0.0213
      8 C          61.6055   88.3552   11.0590 C.3     1  UNL1        0.0719
      9 N          61.7434   87.0200   11.7286 N.am    1  UNL1       -0.3025
     10 C          62.3363   85.8633   10.9800 C.2     1  UNL1        0.2458
     11 O          62.7913   86.0417    9.5618 O.2     1  UNL1       -0.2701
     12 H          61.4448   86.9029   12.6594 H       1  UNL1        0.1497
     13 C          62.4742   84.5281   11.6495 C.ar    1  UNL1        0.0534
     14 C          62.7307   83.2998   10.8276 C.ar    1  UNL1        0.0052
     15 C          62.8686   81.9647   11.4971 C.ar    1  UNL1        0.0104
     16 C          62.7501   81.8577   12.9886 C.ar    1  UNL1        0.0685
     17 C          62.4936   83.0860   13.8106 C.ar    1  UNL1        0.0104
     18 C          62.3557   84.4212   13.1410 C.ar    1  UNL1        0.0052
     19 C          62.8880   80.5226   13.6581 C.1     1  UNL1        0.1004
     20 N          63.0260   79.1873   14.3277 N.1     1  UNL1       -0.1908
     21 O          65.5476   93.3568   12.8199 O.3     1  UNL1       -0.4639
     22 C          66.1479   94.2441   11.7699 C.ar    1  UNL1        0.2275
     23 N          65.8681   95.7177   11.7838 N.ar    1  UNL1       -0.1893
     24 C          66.4684   96.6049   10.7339 C.ar    1  UNL1        0.2015
     25 N          67.3484   96.0186    9.6700 N.ar    1  UNL1       -0.2237
     26 C          67.6282   94.5450    9.6562 C.ar    1  UNL1        0.0898
     27 C          68.5083   93.9587    8.5924 C.ar    1  UNL1        0.0489
     28 C          68.7881   92.4851    8.5785 C.ar    1  UNL1        0.1416
     29 F          69.6681   91.8987    7.5147 F       1  UNL1       -0.2041
     30 C          68.1878   91.5978    9.6285 C.ar    1  UNL1        0.0299
     31 C          67.3077   92.1841   10.6923 C.ar    1  UNL1        0.0085
     32 C          67.0280   93.6578   10.7061 C.ar    1  UNL1        0.0710
@<TRIPOS>BOND
     1     7     8    1
     2     8     9    1
     3     9    10   am
     4    10    11    2
     5    10    13    1
     6    13    14   ar
     7    14    15   ar
     8    15    16   ar
     9    16    19    1
    10    19    20    3
    11    16    17   ar
    12    17    18   ar
    13     1     8    1
    14     1     2    1
    15     2     3    1
    16     3     4    1
    17     4    21    1
    18    21    22    1
    19    22    23   ar
    20    23    24   ar
    21    24    25   ar
    22    25    26   ar
    23    26    27   ar
    24    27    28   ar
    25    28    29    1
    26    28    30   ar
    27    30    31   ar
    28    31    32   ar
    29     4     5    1
    30     6     5    1
    31    18    13   ar
    32     6     1    1
    33     6     2    1
    34    32    22   ar
    35    32    26   ar
    36     9    12    1
@<TRIPOS>MOLECULE
*****
 32 36 0 0 0
SMALL
GASTEIGER

@<TRIPOS>ATOM
      1 C          63.3757   87.6313   16.1864 C.3     1  UNL1        0.0182
      2 C          64.2406   88.4690   15.2919 C.3     1  UNL1        0.0053
      3 C          64.9850   89.5462   14.5600 C.3     1  UNL1        0.0436
      4 C          64.5889   90.8668   15.1509 C.3     1  UNL1        0.1676
      5 C          63.5998   90.6058   16.2479 C.3     1  UNL1        0.0436
      6 C          63.3845   89.1239   16.3351 C.3     1  UNL1        0.0053
      7 C          62.5858   86.0203   18.0654 C.3     1  UNL1        0.0213
      8 C          62.8711   86.2860   16.6170 C.3     1  UNL1        0.0719
      9 N          62.6519   85.2062   15.5991 N.am    1  UNL1       -0.3025
     10 C          63.7967   84.7254   14.7573 C.2     1  UNL1        0.2458
     11 O          65.1606   85.3244   14.9336 O.2     1  UNL1       -0.2701
     12 H          61.7568   84.8131   15.4834 H       1  UNL1        0.1497
     13 C          63.5775   83.6457   13.7395 C.ar    1  UNL1        0.0534
     14 C          62.6697   82.4933   14.0521 C.ar    1  UNL1        0.0052
     15 C          62.4506   81.4135   13.0342 C.ar    1  UNL1        0.0104
     16 C          63.1393   81.4862   11.7036 C.ar    1  UNL1        0.0685
     17 C          64.0471   82.6386   11.3910 C.ar    1  UNL1        0.0104
     18 C          64.2662   83.7184   12.4089 C.ar    1  UNL1        0.0052
     19 C          62.9201   80.4065   10.6857 C.1     1  UNL1        0.1004
     20 N          62.7009   79.3267    9.6678 N.1     1  UNL1       -0.1908
     21 O          65.0934   92.2122   14.7203 O.3     1  UNL1       -0.4639
     22 C          65.2491   92.5230   13.2610 C.ar    1  UNL1        0.2275
     23 N          66.3206   93.4687   12.8058 N.ar    1  UNL1       -0.1893
     24 C          66.4762   93.7795   11.3466 C.ar    1  UNL1        0.2015
     25 N          65.5603   93.1445   10.3427 N.ar    1  UNL1       -0.2237
     26 C          64.4887   92.1988   10.7980 C.ar    1  UNL1        0.0898
     27 C          63.5727   91.5638    9.7941 C.ar    1  UNL1        0.0489
     28 C          62.5012   90.6181   10.2493 C.ar    1  UNL1        0.1416
     29 F          61.5852   89.9831    9.2455 F       1  UNL1       -0.2041
     30 C          62.3455   90.3073   11.7086 C.ar    1  UNL1        0.0299
     31 C          63.2615   90.9423   12.7125 C.ar    1  UNL1        0.0085
     32 C          64.3331   91.8880   12.2571 C.ar    1  UNL1        0.0710
@<TRIPOS>BOND
     1     7     8    1
     2     8     9    1
     3     9    10   am
     4    10    11    2
     5    10    13    1
     6    13    14   ar
     7    14    15   ar
     8    15    16   ar
     9    16    19    1
    10    19    20    3
    11    16    17   ar
    12    17    18   ar
    13     1     8    1
    14     1     2    1
    15     2     3    1
    16     3     4    1
    17     4    21    1
    18    21    22    1
    19    22    23   ar
    20    23    24   ar
    21    24    25   ar
    22    25    26   ar
    23    26    27   ar
    24    27    28   ar
    25    28    29    1
    26    28    30   ar
    27    30    31   ar
    28    31    32   ar
    29     4     5    1
    30     6     5    1
    31    18    13   ar
    32     6     1    1
    33     6     2    1
    34    32    22   ar
    35    32    26   ar
    36     9    12    1
@<TRIPOS>MOLECULE
*****
 32 36 0 0 0
SMALL
GASTEIGER

@<TRIPOS>ATOM
      1 C          59.5867   89.3427    7.1185 C.3     1  UNL1        0.0182
      2 C          60.2252   89.1673    8.4644 C.3     1  UNL1        0.0053
      3 C          60.7911   88.6896    9.7688 C.3     1  UNL1        0.0436
      4 C          60.5771   87.2073    9.8519 C.3     1  UNL1        0.1676
      5 C          59.8790   86.7688    8.5988 C.3     1  UNL1        0.0436
      6 C          59.6615   87.9802    7.7412 C.3     1  UNL1        0.0053
      7 C          57.7222   90.5180    5.7429 C.3     1  UNL1        0.0213
      8 C          59.1749   90.2306    5.9818 C.3     1  UNL1        0.0719
      9 N          60.2158   90.8312    5.0841 N.am    1  UNL1       -0.3025
     10 C          59.8437   91.9329    4.1365 C.2     1  UNL1        0.2458
     11 O          58.4307   92.4341    4.0868 O.2     1  UNL1       -0.2701
     12 H          61.1431   90.5023    5.1167 H       1  UNL1        0.1497
     13 C          60.8845   92.5335    3.2388 C.ar    1  UNL1        0.0534
     14 C          60.5547   93.7395    2.4100 C.ar    1  UNL1        0.0052
     15 C          61.5956   94.3400    1.5123 C.ar    1  UNL1        0.0104
     16 C          62.9663   93.7346    1.4433 C.ar    1  UNL1        0.0685
     17 C          63.2961   92.5286    2.2721 C.ar    1  UNL1        0.0104
     18 C          62.2552   91.9281    3.1699 C.ar    1  UNL1        0.0052
     19 C          64.0071   94.3352    0.5456 C.1     1  UNL1        0.1004
     20 N          65.0480   94.9358   -0.3521 N.1     1  UNL1       -0.1908
     21 O          60.9890   86.3194   10.9885 O.3     1  UNL1       -0.4639
     22 C          62.1065   85.3357   10.8049 C.ar    1  UNL1        0.2275
     23 N          62.6078   85.0187    9.4272 N.ar    1  UNL1       -0.1893
     24 C          63.7252   84.0350    9.2437 C.ar    1  UNL1        0.2015
     25 N          64.3413   83.3684   10.4378 N.ar    1  UNL1       -0.2237
     26 C          63.8400   83.6853   11.8155 C.ar    1  UNL1        0.0898
     27 C          64.4560   83.0186   13.0097 C.ar    1  UNL1        0.0489
     28 C          63.9547   83.3356   14.3874 C.ar    1  UNL1        0.1416
     29 F          64.5707   82.6689   15.5815 F       1  UNL1       -0.2041
     30 C          62.8372   84.3193   14.5710 C.ar    1  UNL1        0.0299
     31 C          62.2211   84.9860   13.3768 C.ar    1  UNL1        0.0085
     32 C          62.7225   84.6690   11.9991 C.ar    1  UNL1        0.0710
@<TRIPOS>BOND
     1     7     8    1
     2     8     9    1
     3     9    10   am
     4    10    11    2
     5    10    13    1
     6    13    14   ar
     7    14    15   ar
     8    15    16   ar
     9    16    19    1
    10    19    20    3
    11    16    17   ar
    12    17    18   ar
    13     1     8    1
    14     1     2    1
    15     2     3    1
    16     3     4    1
    17     4    21    1
    18    21    22    1
    19    22    23   ar
    20    23    24   ar
    21    24    25   ar
    22    25    26   ar
    23    26    27   ar
    24    27    28   ar
    25    28    29    1
    26    28    30   ar
    27    30    31   ar
    28    31    32   ar
    29     4     5    1
    30     6     5    1
    31    18    13   ar
    32     6     1    1
    33     6     2    1
    34    32    22   ar
    35    32    26   ar
    36     9    12    1
@<TRIPOS>MOLECULE
*****
 32 36 0 0 0
SMALL
GASTEIGER

@<TRIPOS>ATOM
      1 C          63.1474   87.4971   16.2305 C.3     1  UNL1        0.0182
      2 C          63.9304   88.3763   15.3011 C.3     1  UNL1        0.0053
      3 C          64.6277   89.4841   14.5686 C.3     1  UNL1        0.0436
      4 C          64.3816   90.7610   15.3161 C.3     1  UNL1        0.1676
      5 C          63.5322   90.4424   16.5107 C.3     1  UNL1        0.0436
      6 C          63.2533   88.9686   16.5014 C.3     1  UNL1        0.0053
      7 C          62.3008   85.8379   18.0416 C.3     1  UNL1        0.0213
      8 C          62.6341   86.1399   16.6107 C.3     1  UNL1        0.0719
      9 N          62.4542   85.0847   15.5598 N.am    1  UNL1       -0.3025
     10 C          63.6390   84.5870   14.7861 C.2     1  UNL1        0.2458
     11 O          65.0037   85.1446   15.0633 O.2     1  UNL1       -0.2701
     12 H          61.5585   84.7187   15.3780 H       1  UNL1        0.1497
     13 C          63.4591   83.5318   13.7353 C.ar    1  UNL1        0.0534
     14 C          64.1449   83.6701   12.4085 C.ar    1  UNL1        0.0052
     15 C          63.9650   82.6149   11.3577 C.ar    1  UNL1        0.0104
     16 C          63.0993   81.4214   11.6337 C.ar    1  UNL1        0.0685
     17 C          62.4135   81.2831   12.9606 C.ar    1  UNL1        0.0104
     18 C          62.5934   82.3384   14.0114 C.ar    1  UNL1        0.0052
     19 C          62.9194   80.3662   10.5830 C.1     1  UNL1        0.1004
     20 N          62.7395   79.3109    9.5321 N.1     1  UNL1       -0.1908
     21 O          64.8948   92.1182   14.9359 O.3     1  UNL1       -0.4639
     22 C          66.3294   92.2919   14.5335 C.ar    1  UNL1        0.2275
     23 N          67.3950   92.4004   15.5836 N.ar    1  UNL1       -0.1893
     24 C          68.8296   92.5741   15.1812 C.ar    1  UNL1        0.2015
     25 N          69.1985   92.6393   13.7287 N.ar    1  UNL1       -0.2237
     26 C          68.1329   92.5308   12.6787 C.ar    1  UNL1        0.0898
     27 C          68.5018   92.5960   11.2262 C.ar    1  UNL1        0.0489
     28 C          67.4362   92.4875   10.1762 C.ar    1  UNL1        0.1416
     29 F          67.8051   92.5527    8.7237 F       1  UNL1       -0.2041
     30 C          66.0016   92.3138   10.5785 C.ar    1  UNL1        0.0299
     31 C          65.6327   92.2486   12.0310 C.ar    1  UNL1        0.0085
     32 C          66.6984   92.3571   13.0811 C.ar    1  UNL1        0.0710
@<TRIPOS>BOND
     1     7     8    1
     2     8     9    1
     3     9    10   am
     4    10    11    2
     5    10    13    1
     6    13    14   ar
     7    14    15   ar
     8    15    16   ar
     9    16    19    1
    10    19    20    3
    11    16    17   ar
    12    17    18   ar
    13     1     8    1
    14     1     2    1
    15     2     3    1
    16     3     4    1
    17     4    21    1
    18    21    22    1
    19    22    23   ar
    20    23    24   ar
    21    24    25   ar
    22    25    26   ar
    23    26    27   ar
    24    27    28   ar
    25    28    29    1
    26    28    30   ar
    27    30    31   ar
    28    31    32   ar
    29     4     5    1
    30     6     5    1
    31    18    13   ar
    32     6     1    1
    33     6     2    1
    34    32    22   ar
    35    32    26   ar
    36     9    12    1
@<TRIPOS>MOLECULE
*****
 32 36 0 0 0
SMALL
GASTEIGER

@<TRIPOS>ATOM
      1 C          64.6002   89.9388   14.5067 C.3     1  UNL1        0.0182
      2 C          64.0261   88.8650   13.6308 C.3     1  UNL1        0.0053
      3 C          63.4719   87.6151   13.0137 C.3     1  UNL1        0.0436
      4 C          63.4472   86.5489   14.0685 C.3     1  UNL1        0.1676
      5 C          63.9862   87.1398   15.3375 C.3     1  UNL1        0.0436
      6 C          64.3439   88.5712   15.0670 C.3     1  UNL1        0.0053
      7 C          65.3825   91.8657   16.0639 C.3     1  UNL1        0.0213
      8 C          65.0796   91.3484   14.6890 C.3     1  UNL1        0.0719
      9 N          65.2560   92.2407   13.4961 N.am    1  UNL1       -0.3025
     10 C          66.6089   92.3921   12.8663 C.2     1  UNL1        0.2458
     11 O          67.7855   91.6512   13.4294 O.2     1  UNL1       -0.2701
     12 H          64.4838   92.7270   13.1266 H       1  UNL1        0.1497
     13 C          66.7854   93.2843   11.6736 C.ar    1  UNL1        0.0534
     14 C          66.2786   94.6956   11.7111 C.ar    1  UNL1        0.0052
     15 C          66.4551   95.5878   10.5183 C.ar    1  UNL1        0.0104
     16 C          67.1384   95.0688    9.2880 C.ar    1  UNL1        0.0685
     17 C          67.6452   93.6575    9.2504 C.ar    1  UNL1        0.0104
     18 C          67.4687   92.7652   10.4433 C.ar    1  UNL1        0.0052
     19 C          67.3149   95.9610    8.0952 C.1     1  UNL1        0.1004
     20 N          67.4913   96.8533    6.9024 N.1     1  UNL1       -0.1908
     21 O          62.9678   85.1393   13.8863 O.3     1  UNL1       -0.4639
     22 C          63.4862   84.3122   12.7473 C.ar    1  UNL1        0.2275
     23 N          64.4018   83.1550   13.0166 N.ar    1  UNL1       -0.1893
     24 C          64.9201   82.3279   11.8776 C.ar    1  UNL1        0.2015
     25 N          64.5227   82.6580   10.4694 N.ar    1  UNL1       -0.2237
     26 C          63.6071   83.8152   10.2001 C.ar    1  UNL1        0.0898
     27 C          63.2098   84.1453    8.7918 C.ar    1  UNL1        0.0489
     28 C          62.2942   85.3025    8.5226 C.ar    1  UNL1        0.1416
     29 F          61.8969   85.6326    7.1143 F       1  UNL1       -0.2041
     30 C          61.7759   86.1296    9.6615 C.ar    1  UNL1        0.0299
     31 C          62.1732   85.7995   11.0698 C.ar    1  UNL1        0.0085
     32 C          63.0889   84.6423   11.3391 C.ar    1  UNL1        0.0710
@<TRIPOS>BOND
     1     7     8    1
     2     8     9    1
     3     9    10   am
     4    10    11    2
     5    10    13    1
     6    13    14   ar
     7    14    15   ar
     8    15    16   ar
     9    16    19    1
    10    19    20    3
    11    16    17   ar
    12    17    18   ar
    13     1     8    1
    14     1     2    1
    15     2     3    1
    16     3     4    1
    17     4    21    1
    18    21    22    1
    19    22    23   ar
    20    23    24   ar
    21    24    25   ar
    22    25    26   ar
    23    26    27   ar
    24    27    28   ar
    25    28    29    1
    26    28    30   ar
    27    30    31   ar
    28    31    32   ar
    29     4     5    1
    30     6     5    1
    31    18    13   ar
    32     6     1    1
    33     6     2    1
    34    32    22   ar
    35    32    26   ar
    36     9    12    1
@<TRIPOS>MOLECULE
*****
 32 36 0 0 0
SMALL
GASTEIGER

@<TRIPOS>ATOM
      1 C          63.8823   87.4408   15.5927 C.3     1  UNL1        0.0182
      2 C          63.3652   86.0449   15.7768 C.3     1  UNL1        0.0053
      3 C          63.1241   84.5657   15.8375 C.3     1  UNL1        0.0436
      4 C          64.3358   83.8754   15.2850 C.3     1  UNL1        0.1676
      5 C          65.3259   84.9281   14.8829 C.3     1  UNL1        0.0436
      6 C          64.7260   86.2689   15.1869 C.3     1  UNL1        0.0053
      7 C          62.7542   89.4737   16.7523 C.3     1  UNL1        0.0213
      8 C          63.6937   88.9234   15.7206 C.3     1  UNL1        0.0719
      9 N          64.4448   89.8557   14.8168 N.am    1  UNL1       -0.3025
     10 C          63.7978   90.3701   13.5650 C.2     1  UNL1        0.2458
     11 O          62.3998   89.9520   13.2171 O.2     1  UNL1       -0.2701
     12 H          65.3623   90.1301   15.0451 H       1  UNL1        0.1497
     13 C          64.5487   91.3023   12.6612 C.ar    1  UNL1        0.0534
     14 C          64.0816   91.5195   11.2524 C.ar    1  UNL1        0.0052
     15 C          64.8325   92.4518   10.3486 C.ar    1  UNL1        0.0104
     16 C          66.0506   93.1670   10.8536 C.ar    1  UNL1        0.0685
     17 C          66.5177   92.9498   12.2623 C.ar    1  UNL1        0.0104
     18 C          65.7667   92.0174   13.1662 C.ar    1  UNL1        0.0052
     19 C          66.8016   94.0992    9.9498 C.1     1  UNL1        0.1004
     20 N          67.5525   95.0316    9.0459 N.1     1  UNL1       -0.1908
     21 O          64.5244   82.3928   15.1570 O.3     1  UNL1       -0.4639
     22 C          63.8228   81.6389   14.0664 C.ar    1  UNL1        0.2275
     23 N          63.1712   80.3212   14.3649 N.ar    1  UNL1       -0.1893
     24 C          62.4696   79.5674   13.2743 C.ar    1  UNL1        0.2015
     25 N          62.4196   80.1312   11.8852 N.ar    1  UNL1       -0.2237
     26 C          63.0712   81.4488   11.5867 C.ar    1  UNL1        0.0898
     27 C          63.0213   82.0126   10.1976 C.ar    1  UNL1        0.0489
     28 C          63.6728   83.3303    9.8991 C.ar    1  UNL1        0.1416
     29 F          63.6229   83.8941    8.5100 F       1  UNL1       -0.2041
     30 C          64.3745   84.0842   10.9897 C.ar    1  UNL1        0.0299
     31 C          64.4244   83.5204   12.3788 C.ar    1  UNL1        0.0085
     32 C          63.7728   82.2027   12.6773 C.ar    1  UNL1        0.0710
@<TRIPOS>BOND
     1     7     8    1
     2     8     9    1
     3     9    10   am
     4    10    11    2
     5    10    13    1
     6    13    14   ar
     7    14    15   ar
     8    15    16   ar
     9    16    19    1
    10    19    20    3
    11    16    17   ar
    12    17    18   ar
    13     1     8    1
    14     1     2    1
    15     2     3    1
    16     3     4    1
    17     4    21    1
    18    21    22    1
    19    22    23   ar
    20    23    24   ar
    21    24    25   ar
    22    25    26   ar
    23    26    27   ar
    24    27    28   ar
    25    28    29    1
    26    28    30   ar
    27    30    31   ar
    28    31    32   ar
    29     4     5    1
    30     6     5    1
    31    18    13   ar
    32     6     1    1
    33     6     2    1
    34    32    22   ar
    35    32    26   ar
    36     9    12    1
@<TRIPOS>MOLECULE
*****
 32 36 0 0 0
SMALL
GASTEIGER

@<TRIPOS>ATOM
      1 C          59.6855   89.7307    6.7884 C.3     1  UNL1        0.0182
      2 C          58.7546   90.5225    5.9187 C.3     1  UNL1        0.0053
      3 C          58.0862   91.3941    4.8971 C.3     1  UNL1        0.0436
      4 C          59.1473   91.9411    3.9889 C.3     1  UNL1        0.1676
      5 C          60.4715   91.4075    4.4491 C.3     1  UNL1        0.0436
      6 C          60.2288   90.5308    5.6418 C.3     1  UNL1        0.0053
      7 C          59.0128   87.6262    8.1553 C.3     1  UNL1        0.0213
      8 C          59.9092   88.8116    7.9525 C.3     1  UNL1        0.0719
      9 N          61.0296   89.0779    8.9138 N.am    1  UNL1       -0.3025
     10 C          60.8325   90.0407   10.0470 C.2     1  UNL1        0.2458
     11 O          59.5151   90.7372   10.2190 O.2     1  UNL1       -0.2701
     12 H          61.8942   88.6208    8.8009 H       1  UNL1        0.1497
     13 C          61.9527   90.3070   11.0083 C.ar    1  UNL1        0.0534
     14 C          63.0936   91.1928   10.6037 C.ar    1  UNL1        0.0052
     15 C          64.2138   91.4592   11.5649 C.ar    1  UNL1        0.0104
     16 C          64.1932   90.8397   12.9309 C.ar    1  UNL1        0.0685
     17 C          63.0524   89.9539   13.3356 C.ar    1  UNL1        0.0104
     18 C          61.9321   89.6876   12.3742 C.ar    1  UNL1        0.0052
     19 C          65.3135   91.1060   13.8922 C.1     1  UNL1        0.1004
     20 N          66.4337   91.3724   14.8536 N.1     1  UNL1       -0.1908
     21 O          58.9235   92.8602    2.8247 O.3     1  UNL1       -0.4639
     22 C          60.0233   93.0946    1.8320 C.ar    1  UNL1        0.2275
     23 N          61.4309   93.3016    2.3071 N.ar    1  UNL1       -0.1893
     24 C          62.5307   93.5361    1.3144 C.ar    1  UNL1        0.2015
     25 N          62.2229   93.5635   -0.1534 N.ar    1  UNL1       -0.2237
     26 C          60.8153   93.3564   -0.6285 C.ar    1  UNL1        0.0898
     27 C          60.5074   93.3838   -2.0963 C.ar    1  UNL1        0.0489
     28 C          59.0998   93.1768   -2.5714 C.ar    1  UNL1        0.1416
     29 F          58.7920   93.2042   -4.0393 F       1  UNL1       -0.2041
     30 C          58.0000   92.9424   -1.5787 C.ar    1  UNL1        0.0299
     31 C          58.3078   92.9150   -0.1109 C.ar    1  UNL1        0.0085
     32 C          59.7155   93.1220    0.3642 C.ar    1  UNL1        0.0710
@<TRIPOS>BOND
     1     7     8    1
     2     8     9    1
     3     9    10   am
     4    10    11    2
     5    10    13    1
     6    13    14   ar
     7    14    15   ar
     8    15    16   ar
     9    16    19    1
    10    19    20    3
    11    16    17   ar
    12    17    18   ar
    13     1     8    1
    14     1     2    1
    15     2     3    1
    16     3     4    1
    17     4    21    1
    18    21    22    1
    19    22    23   ar
    20    23    24   ar
    21    24    25   ar
    22    25    26   ar
    23    26    27   ar
    24    27    28   ar
    25    28    29    1
    26    28    30   ar
    27    30    31   ar
    28    31    32   ar
    29     4     5    1
    30     6     5    1
    31    18    13   ar
    32     6     1    1
    33     6     2    1
    34    32    22   ar
    35    32    26   ar
    36     9    12    1
@<TRIPOS>MOLECULE
*****
 32 36 0 0 0
SMALL
GASTEIGER

@<TRIPOS>ATOM
      1 C          59.3764   89.4070    6.7007 C.3     1  UNL1        0.0182
      2 C          59.4962   88.0225    7.2652 C.3     1  UNL1        0.0053
      3 C          59.7710   86.7814    8.0616 C.3     1  UNL1        0.0436
      4 C          60.5373   87.1781    9.2885 C.3     1  UNL1        0.1676
      5 C          60.7361   88.6644    9.2504 C.3     1  UNL1        0.0436
      6 C          60.0927   89.1863    8.0000 C.3     1  UNL1        0.0053
      7 C          57.4597   90.7730    5.6007 C.3     1  UNL1        0.0213
      8 C          58.8937   90.3339    5.6246 C.3     1  UNL1        0.0719
      9 N          59.8451   90.8216    4.5725 N.am    1  UNL1       -0.3025
     10 C          59.8617   92.2721    4.1906 C.2     1  UNL1        0.2458
     11 O          58.9268   93.2348    4.8609 O.2     1  UNL1       -0.2701
     12 H          60.4587   90.1897    4.1326 H       1  UNL1        0.1497
     13 C          60.8130   92.7599    3.1385 C.ar    1  UNL1        0.0534
     14 C          60.4268   93.9061    2.2513 C.ar    1  UNL1        0.0052
     15 C          61.3781   94.3938    1.1992 C.ar    1  UNL1        0.0104
     16 C          62.7158   93.7354    1.0342 C.ar    1  UNL1        0.0685
     17 C          63.1021   92.5892    1.9214 C.ar    1  UNL1        0.0104
     18 C          62.1506   92.1014    2.9735 C.ar    1  UNL1        0.0052
     19 C          63.6672   94.2232   -0.0179 C.1     1  UNL1        0.1004
     20 N          64.6186   94.7110   -1.0700 N.1     1  UNL1       -0.1908
     21 O          61.0201   86.2513   10.3646 O.3     1  UNL1       -0.4639
     22 C          61.9799   86.7461   11.4057 C.ar    1  UNL1        0.2275
     23 N          62.2776   88.2122   11.5151 N.ar    1  UNL1       -0.1893
     24 C          63.2374   88.7070   12.5561 C.ar    1  UNL1        0.2015
     25 N          63.8996   87.7357   13.4878 N.ar    1  UNL1       -0.2237
     26 C          63.6020   86.2696   13.3785 C.ar    1  UNL1        0.0898
     27 C          64.2642   85.2984   14.3102 C.ar    1  UNL1        0.0489
     28 C          63.9666   83.8323   14.2008 C.ar    1  UNL1        0.1416
     29 F          64.6288   82.8610   15.1325 F       1  UNL1       -0.2041
     30 C          63.0067   83.3374   13.1597 C.ar    1  UNL1        0.0299
     31 C          62.3445   84.3087   12.2280 C.ar    1  UNL1        0.0085
     32 C          62.6422   85.7748   12.3374 C.ar    1  UNL1        0.0710
@<TRIPOS>BOND
     1     7     8    1
     2     8     9    1
     3     9    10   am
     4    10    11    2
     5    10    13    1
     6    13    14   ar
     7    14    15   ar
     8    15    16   ar
     9    16    19    1
    10    19    20    3
    11    16    17   ar
    12    17    18   ar
    13     1     8    1
    14     1     2    1
    15     2     3    1
    16     3     4    1
    17     4    21    1
    18    21    22    1
    19    22    23   ar
    20    23    24   ar
    21    24    25   ar
    22    25    26   ar
    23    26    27   ar
    24    27    28   ar
    25    28    29    1
    26    28    30   ar
    27    30    31   ar
    28    31    32   ar
    29     4     5    1
    30     6     5    1
    31    18    13   ar
    32     6     1    1
    33     6     2    1
    34    32    22   ar
    35    32    26   ar
    36     9    12    1
@<TRIPOS>MOLECULE
*****
 32 36 0 0 0
SMALL
GASTEIGER

@<TRIPOS>ATOM
      1 C          61.5892   88.8529   10.5797 C.3     1  UNL1        0.0182
      2 C          62.5271   89.6181   11.4654 C.3     1  UNL1        0.0053
      3 C          63.4948   90.5713   12.1018 C.3     1  UNL1        0.0436
      4 C          63.8329   91.6301   11.0945 C.3     1  UNL1        0.1676
      5 C          63.0741   91.3313    9.8355 C.3     1  UNL1        0.0436
      6 C          62.2671   90.0878   10.0647 C.3     1  UNL1        0.0053
      7 C          59.5129   87.8259    9.4030 C.3     1  UNL1        0.0213
      8 C          60.6562   87.6980   10.3656 C.3     1  UNL1        0.0719
      9 N          60.8665   86.4152   11.1141 N.am    1  UNL1       -0.3025
     10 C          62.0588   85.5570   10.8113 C.2     1  UNL1        0.2458
     11 O          63.0409   85.9815    9.7599 O.2     1  UNL1       -0.2701
     12 H          60.2219   86.1366   11.8042 H       1  UNL1        0.1497
     13 C          62.2692   84.2742   11.5598 C.ar    1  UNL1        0.0534
     14 C          62.5268   83.0014   10.8091 C.ar    1  UNL1        0.0052
     15 C          62.7372   81.7187   11.5575 C.ar    1  UNL1        0.0104
     16 C          62.6898   81.7087   13.0568 C.ar    1  UNL1        0.0685
     17 C          62.4322   82.9815   13.8075 C.ar    1  UNL1        0.0104
     18 C          62.2218   84.2643   13.0589 C.ar    1  UNL1        0.0052
     19 C          62.9002   80.4259   13.8053 C.1     1  UNL1        0.1004
     20 N          63.1106   79.1431   14.5538 N.1     1  UNL1       -0.1908
     21 O          64.7659   92.7850   11.3086 O.3     1  UNL1       -0.4639
     22 C          66.2272   92.5360   11.5378 C.ar    1  UNL1        0.2275
     23 N          67.1594   92.4127   10.3691 N.ar    1  UNL1       -0.1893
     24 C          68.6207   92.1637   10.5984 C.ar    1  UNL1        0.2015
     25 N          69.1498   92.0381   11.9963 N.ar    1  UNL1       -0.2237
     26 C          68.2177   92.1615   13.1650 C.ar    1  UNL1        0.0898
     27 C          68.7468   92.0358   14.5629 C.ar    1  UNL1        0.0489
     28 C          67.8147   92.1592   15.7316 C.ar    1  UNL1        0.1416
     29 F          68.3439   92.0336   17.1295 F       1  UNL1       -0.2041
     30 C          66.3533   92.4082   15.5024 C.ar    1  UNL1        0.0299
     31 C          65.8242   92.5338   14.1044 C.ar    1  UNL1        0.0085
     32 C          66.7564   92.4104   12.9357 C.ar    1  UNL1        0.0710
@<TRIPOS>BOND
     1     7     8    1
     2     8     9    1
     3     9    10   am
     4    10    11    2
     5    10    13    1
     6    13    14   ar
     7    14    15   ar
     8    15    16   ar
     9    16    19    1
    10    19    20    3
    11    16    17   ar
    12    17    18   ar
    13     1     8    1
    14     1     2    1
    15     2     3    1
    16     3     4    1
    17     4    21    1
    18    21    22    1
    19    22    23   ar
    20    23    24   ar
    21    24    25   ar
    22    25    26   ar
    23    26    27   ar
    24    27    28   ar
    25    28    29    1
    26    28    30   ar
    27    30    31   ar
    28    31    32   ar
    29     4     5    1
    30     6     5    1
    31    18    13   ar
    32     6     1    1
    33     6     2    1
    34    32    22   ar
    35    32    26   ar
    36     9    12    1
