@<TRIPOS>MOLECULE
*****
 44 49 0 0 0
SMALL
GASTEIGER

@<TRIPOS>ATOM
      1 N          60.0526   93.7338   -0.2068 N.am    1  UNL1       -0.2222
      2 C          59.5087   93.0775    1.0276 C.2     1  UNL1        0.3219
      3 O          58.0611   92.8203    1.3244 O.2     1  UNL1       -0.2512
      4 N          60.6667   92.7237    1.9129 N.am    1  UNL1       -0.1907
      5 C          61.9262   93.1612    1.2257 C.2     1  UNL1        0.2529
      6 O          63.3205   93.0024    1.7555 O.2     1  UNL1       -0.2724
      7 C          61.5467   93.7855   -0.0844 C.3     1  UNL1        0.1391
      8 C          61.0179   94.3795   -1.3562 C.3     1  UNL1        0.0449
      9 C          61.9659   94.9545   -2.3663 C.3     1  UNL1        0.0746
     10 N          63.4428   94.9355   -2.1047 N.3     1  UNL1       -0.2676
     11 C          63.9716   94.3416   -0.8329 C.3     1  UNL1        0.0746
     12 C          63.0236   93.7666    0.1773 C.3     1  UNL1        0.0449
     13 C          58.0937   93.8508   -3.6563 C.ar    1  UNL1        0.2293
     14 C          58.9020   93.3366   -2.5021 C.ar    1  UNL1        0.0924
     15 C          59.2442   94.2480   -1.3610 C.ar    1  UNL1        0.1453
     16 N          58.7781   95.6737   -1.3741 N.ar    1  UNL1       -0.2084
     17 C          57.9698   96.1880   -2.5282 C.ar    1  UNL1        0.2027
     18 N          57.6275   95.2765   -3.6694 N.ar    1  UNL1       -0.1892
     19 C          57.1112   91.6098   -4.5292 C.3     1  UNL1        0.2542
     20 O          57.7514   92.9395   -4.7974 O.3     1  UNL1       -0.4560
     21 C          60.5804   92.0505    3.2505 C.ar    1  UNL1        0.0622
     22 C          61.7527   91.2778    3.7783 C.ar    1  UNL1        0.0154
     23 C          61.6663   90.6046    5.1160 C.ar    1  UNL1        0.0013
     24 C          60.4077   90.7041    5.9259 C.ar    1  UNL1       -0.0002
     25 C          59.2353   91.4768    5.3980 C.ar    1  UNL1        0.0013
     26 C          59.3218   92.1500    4.0604 C.ar    1  UNL1        0.0154
     27 C          60.3213   90.0309    7.2635 C.ar    1  UNL1       -0.0040
     28 C          61.0847   90.5820    8.4312 C.ar    1  UNL1       -0.0003
     29 C          60.9983   89.9088    9.7689 C.ar    1  UNL1        0.0011
     30 C          60.1486   88.6844    9.9388 C.ar    1  UNL1        0.0137
     31 C          59.3852   88.1333    8.7711 C.ar    1  UNL1       -0.0031
     32 C          59.4716   88.8064    7.4335 C.ar    1  UNL1       -0.0218
     33 C          58.7082   88.2553    6.2658 C.3     1  UNL1        0.0310
     34 C          60.0622   88.0112   11.2764 C.2     1  UNL1        0.0729
     35 O          60.8861   86.7892   11.5557 O.co2   1  UNL1       -0.5446
     36 O          59.1520   88.5601   12.3349 O.co2   1  UNL1       -0.5446
     37 C          64.3909   95.5106   -3.1149 C.3     1  UNL1        0.1183
     38 C          64.7998   94.6978   -4.3075 C.ar    1  UNL1        0.0712
     39 N          64.5830   93.2136   -4.3136 N.ar    1  UNL1       -0.2471
     40 C          64.9920   92.4008   -5.5062 C.ar    1  UNL1        0.0985
     41 C          65.6177   93.0723   -6.6926 C.ar    1  UNL1        0.0203
     42 C          65.8345   94.5565   -6.6864 C.ar    1  UNL1       -0.0015
     43 C          65.4256   95.3693   -5.4939 C.ar    1  UNL1       -0.0069
     44 C          65.6424   96.8535   -5.4878 C.3     1  UNL1        0.0323
@<TRIPOS>UNITY_ATOM_ATTR
35 1
charge -1
@<TRIPOS>BOND
     1    19    20    1
     2    20    13    1
     3    13    14   ar
     4    14    15   ar
     5    15     1    1
     6     1     2   am
     7     2     3    2
     8     2     4   am
     9     4    21    1
    10    21    22   ar
    11    22    23   ar
    12    23    24   ar
    13    24    27    1
    14    27    28   ar
    15    28    29   ar
    16    29    30   ar
    17    30    34    1
    18    34    35   ar
    19    34    36   ar
    20    30    31   ar
    21    31    32   ar
    22    32    33    1
    23    24    25   ar
    24    25    26   ar
    25     4     5   am
    26     5     6    2
    27     5     7    1
    28     7     8    1
    29     8     9    1
    30     9    10    1
    31    10    37    1
    32    37    38    1
    33    38    39   ar
    34    39    40   ar
    35    40    41   ar
    36    41    42   ar
    37    42    43   ar
    38    43    44    1
    39    10    11    1
    40    11    12    1
    41    15    16   ar
    42    16    17   ar
    43    17    18   ar
    44    18    13   ar
    45     7     1    1
    46    43    38   ar
    47    26    21   ar
    48    12     7    1
    49    32    27   ar
@<TRIPOS>MOLECULE
*****
 44 49 0 0 0
SMALL
GASTEIGER

@<TRIPOS>ATOM
      1 N          59.5105   93.6055   -0.1029 N.am    1  UNL1       -0.2222
      2 C          59.0410   92.8632    1.1132 C.2     1  UNL1        0.3219
      3 O          57.6463   92.3697    1.3610 O.2     1  UNL1       -0.2512
      4 N          60.2110   92.7010    2.0378 N.am    1  UNL1       -0.1907
      5 C          61.4036   93.3431    1.3932 C.2     1  UNL1        0.2529
      6 O          62.7863   93.4138    1.9702 O.2     1  UNL1       -0.2724
      7 C          60.9707   93.9021    0.0702 C.3     1  UNL1        0.1391
      8 C          60.3944   94.4064   -1.2195 C.3     1  UNL1        0.0449
      9 C          61.2682   95.1342   -2.1976 C.3     1  UNL1        0.0746
     10 N          62.7184   95.3577   -1.8860 N.3     1  UNL1       -0.2676
     11 C          63.2947   94.8534   -0.5962 C.3     1  UNL1        0.0746
     12 C          62.4209   94.1256    0.3819 C.3     1  UNL1        0.0449
     13 C          56.9688   95.5941   -2.4126 C.ar    1  UNL1        0.2293
     14 C          57.8115   95.2150   -1.2310 C.ar    1  UNL1        0.0924
     15 C          58.6678   93.9846   -1.2844 C.ar    1  UNL1        0.1453
     16 N          58.6815   93.1334   -2.5194 N.ar    1  UNL1       -0.2084
     17 C          57.8388   93.5124   -3.7010 C.ar    1  UNL1        0.2027
     18 N          56.9824   94.7428   -3.6476 N.ar    1  UNL1       -0.1892
     19 C          54.7872   96.8467   -3.0615 C.3     1  UNL1        0.2542
     20 O          56.1124   96.8244   -2.3592 O.3     1  UNL1       -0.4560
     21 C          60.1918   92.0170    3.3725 C.ar    1  UNL1        0.0622
     22 C          58.9359   92.0081    4.1927 C.ar    1  UNL1        0.0154
     23 C          58.9167   91.3240    5.5275 C.ar    1  UNL1        0.0013
     24 C          60.1533   90.6487    6.0420 C.ar    1  UNL1       -0.0002
     25 C          61.4093   90.6576    5.2218 C.ar    1  UNL1        0.0013
     26 C          61.4284   91.3417    3.8871 C.ar    1  UNL1        0.0154
     27 C          60.1341   89.9646    7.3768 C.ar    1  UNL1       -0.0040
     28 C          60.6590   90.6730    8.5903 C.ar    1  UNL1       -0.0003
     29 C          60.6398   89.9889    9.9251 C.ar    1  UNL1        0.0011
     30 C          60.0956   88.5963   10.0463 C.ar    1  UNL1        0.0137
     31 C          59.5708   87.8879    8.8328 C.ar    1  UNL1       -0.0031
     32 C          59.5900   88.5720    7.4981 C.ar    1  UNL1       -0.0218
     33 C          59.0651   87.8635    6.2846 C.3     1  UNL1        0.0310
     34 C          60.0764   87.9122   11.3811 C.2     1  UNL1        0.0729
     35 O          60.8947   86.6746   11.6014 O.co2   1  UNL1       -0.5446
     36 O          59.2388   88.4658   12.4956 O.co2   1  UNL1       -0.5446
     37 C          63.5922   96.0855   -2.8641 C.3     1  UNL1        0.1183
     38 C          63.5292   95.7453   -4.3237 C.ar    1  UNL1        0.0712
     39 N          63.2945   96.8266   -5.3364 N.ar    1  UNL1       -0.2471
     40 C          63.2315   96.4864   -6.7960 C.ar    1  UNL1        0.0985
     41 C          63.4033   95.0648   -7.2428 C.ar    1  UNL1        0.0203
     42 C          63.6380   93.9835   -6.2301 C.ar    1  UNL1       -0.0015
     43 C          63.7010   94.3237   -4.7705 C.ar    1  UNL1       -0.0069
     44 C          63.9357   93.2424   -3.7578 C.3     1  UNL1        0.0323
@<TRIPOS>UNITY_ATOM_ATTR
35 1
charge -1
@<TRIPOS>BOND
     1    19    20    1
     2    20    13    1
     3    13    14   ar
     4    14    15   ar
     5    15     1    1
     6     1     2   am
     7     2     3    2
     8     2     4   am
     9     4    21    1
    10    21    22   ar
    11    22    23   ar
    12    23    24   ar
    13    24    27    1
    14    27    28   ar
    15    28    29   ar
    16    29    30   ar
    17    30    34    1
    18    34    35   ar
    19    34    36   ar
    20    30    31   ar
    21    31    32   ar
    22    32    33    1
    23    24    25   ar
    24    25    26   ar
    25     4     5   am
    26     5     6    2
    27     5     7    1
    28     7     8    1
    29     8     9    1
    30     9    10    1
    31    10    37    1
    32    37    38    1
    33    38    39   ar
    34    39    40   ar
    35    40    41   ar
    36    41    42   ar
    37    42    43   ar
    38    43    44    1
    39    10    11    1
    40    11    12    1
    41    15    16   ar
    42    16    17   ar
    43    17    18   ar
    44    18    13   ar
    45     7     1    1
    46    43    38   ar
    47    26    21   ar
    48    12     7    1
    49    32    27   ar
@<TRIPOS>MOLECULE
*****
 44 49 0 0 0
SMALL
GASTEIGER

@<TRIPOS>ATOM
      1 N          60.0260   93.8836    0.3320 N.am    1  UNL1       -0.2222
      2 C          59.4767   93.2582    1.5800 C.2     1  UNL1        0.3219
      3 O          58.0297   93.1917    1.9696 O.2     1  UNL1       -0.2512
      4 N          60.6286   92.7109    2.3698 N.am    1  UNL1       -0.1907
      5 C          61.8896   92.9981    1.6101 C.2     1  UNL1        0.2529
      6 O          63.2792   92.6259    2.0351 O.2     1  UNL1       -0.2724
      7 C          61.5173   93.7229    0.3506 C.3     1  UNL1        0.1391
      8 C          60.9957   94.4367   -0.8611 C.3     1  UNL1        0.0449
      9 C          61.9474   94.9165   -1.9165 C.3     1  UNL1        0.0746
     10 N          63.4208   94.6824   -1.7602 N.3     1  UNL1       -0.2676
     11 C          63.9424   93.9686   -0.5485 C.3     1  UNL1        0.0746
     12 C          62.9906   93.4888    0.5070 C.3     1  UNL1        0.0449
     13 C          58.0996   94.4801   -3.0860 C.ar    1  UNL1        0.2293
     14 C          58.9009   93.8114   -2.0086 C.ar    1  UNL1        0.0924
     15 C          59.2247   94.5524   -0.7453 C.ar    1  UNL1        0.1453
     16 N          58.7472   95.9621   -0.5593 N.ar    1  UNL1       -0.2084
     17 C          57.9459   96.6309   -1.6366 C.ar    1  UNL1        0.2027
     18 N          57.6221   95.8898   -2.9000 N.ar    1  UNL1       -0.1892
     19 C          56.8549   94.3515   -5.3628 C.3     1  UNL1        0.2542
     20 O          57.7757   93.7392   -4.3493 O.3     1  UNL1       -0.4560
     21 C          60.5356   92.0011    3.6879 C.ar    1  UNL1        0.0622
     22 C          61.6064   91.0331    4.0956 C.ar    1  UNL1        0.0154
     23 C          61.5134   90.3232    5.4138 C.ar    1  UNL1        0.0013
     24 C          60.3497   90.5815    6.3242 C.ar    1  UNL1       -0.0002
     25 C          59.2788   91.5496    5.9166 C.ar    1  UNL1        0.0013
     26 C          59.3719   92.2594    4.5984 C.ar    1  UNL1        0.0154
     27 C          60.2567   89.8717    7.6424 C.ar    1  UNL1       -0.0040
     28 C          60.7715   90.5313    8.8874 C.ar    1  UNL1       -0.0003
     29 C          60.6785   89.8214   10.2055 C.ar    1  UNL1        0.0011
     30 C          60.0707   88.4520   10.2786 C.ar    1  UNL1        0.0137
     31 C          59.5559   87.7924    9.0336 C.ar    1  UNL1       -0.0031
     32 C          59.6489   88.5022    7.7156 C.ar    1  UNL1       -0.0218
     33 C          59.1341   87.8426    6.4706 C.3     1  UNL1        0.0310
     34 C          59.9777   87.7422   11.5968 C.2     1  UNL1        0.0729
     35 O          60.9101   86.6084   11.9055 O.co2   1  UNL1       -0.5446
     36 O          58.9523   88.1662   12.6062 O.co2   1  UNL1       -0.5446
     37 C          64.3725   95.1622   -2.8157 C.3     1  UNL1        0.1183
     38 C          63.8886   95.3807   -4.2186 C.ar    1  UNL1        0.0712
     39 N          63.1086   96.6158   -4.5591 N.ar    1  UNL1       -0.2471
     40 C          62.6247   96.8343   -5.9621 C.ar    1  UNL1        0.0985
     41 C          62.9209   95.8176   -7.0244 C.ar    1  UNL1        0.0203
     42 C          63.7009   94.5825   -6.6839 C.ar    1  UNL1       -0.0015
     43 C          64.1848   94.3640   -5.2810 C.ar    1  UNL1       -0.0069
     44 C          64.9648   93.1288   -4.9405 C.3     1  UNL1        0.0323
@<TRIPOS>UNITY_ATOM_ATTR
35 1
charge -1
@<TRIPOS>BOND
     1    19    20    1
     2    20    13    1
     3    13    14   ar
     4    14    15   ar
     5    15     1    1
     6     1     2   am
     7     2     3    2
     8     2     4   am
     9     4    21    1
    10    21    22   ar
    11    22    23   ar
    12    23    24   ar
    13    24    27    1
    14    27    28   ar
    15    28    29   ar
    16    29    30   ar
    17    30    34    1
    18    34    35   ar
    19    34    36   ar
    20    30    31   ar
    21    31    32   ar
    22    32    33    1
    23    24    25   ar
    24    25    26   ar
    25     4     5   am
    26     5     6    2
    27     5     7    1
    28     7     8    1
    29     8     9    1
    30     9    10    1
    31    10    37    1
    32    37    38    1
    33    38    39   ar
    34    39    40   ar
    35    40    41   ar
    36    41    42   ar
    37    42    43   ar
    38    43    44    1
    39    10    11    1
    40    11    12    1
    41    15    16   ar
    42    16    17   ar
    43    17    18   ar
    44    18    13   ar
    45     7     1    1
    46    43    38   ar
    47    26    21   ar
    48    12     7    1
    49    32    27   ar
