@<TRIPOS>MOLECULE
*****
 39 43 0 0 0
SMALL
GASTEIGER

@<TRIPOS>ATOM
      1 N          61.2806   90.1012    9.6739 N.am    1  UNL1       -0.2995
      2 C          61.7695   90.2232   11.0868 C.2     1  UNL1        0.2648
      3 O          60.9940   89.5937   12.2058 O.2     1  UNL1       -0.2684
      4 H          61.7896   90.5144    8.9394 H       1  UNL1        0.1498
      5 C          63.0340   90.9748   11.3805 C.ar    1  UNL1        0.1479
      6 N          63.7275   91.9296   10.4546 N.ar    1  UNL1       -0.2222
      7 C          64.9491   92.4484   11.1535 C.ar    1  UNL1        0.1475
      8 N          65.0106   91.8142   12.5115 N.ar    1  UNL1       -0.2938
      9 C          63.8270   90.9034   12.6518 C.ar    1  UNL1        0.0651
     10 C          63.4948   90.0681   13.8525 C.3     1  UNL1        0.0522
     11 C          65.9359   93.4292   10.5931 C.ar    1  UNL1        0.0345
     12 C          65.7404   94.8997   10.8149 C.ar    1  UNL1        0.0030
     13 C          66.7273   95.8805   10.2544 C.ar    1  UNL1        0.0001
     14 C          67.9097   95.3906    9.4720 C.ar    1  UNL1        0.0000
     15 C          68.1052   93.9201    9.2502 C.ar    1  UNL1        0.0001
     16 C          67.1183   92.9394    9.8107 C.ar    1  UNL1        0.0030
     17 C          66.0697   92.0494   13.5473 C.ar    1  UNL1        0.0651
     18 C          65.6838   92.4929   14.9273 C.ar    1  UNL1        0.0176
     19 C          66.7429   92.7281   15.9632 C.ar    1  UNL1        0.0015
     20 C          68.1879   92.5199   15.6190 C.ar    1  UNL1        0.0001
     21 C          68.5738   92.0765   14.2389 C.ar    1  UNL1        0.0015
     22 C          67.5147   91.8412   13.2031 C.ar    1  UNL1        0.0176
     23 C          60.0161   89.3496    9.3802 C.3     1  UNL1        0.0912
     24 C          59.8635   88.6178    8.0798 C.3     1  UNL1        0.0386
     25 C          60.4825   87.2627    7.9046 C.3     1  UNL1        0.0739
     26 N          62.5052   85.2464   11.3822 N.pl3   1  UNL1       -0.3049
     27 C          63.0451   85.0680    9.9942 C.3     1  UNL1        0.1081
     28 C          62.3710   85.7401    8.8350 C.3     1  UNL1        0.0938
     29 N          61.1567   86.5907    9.0638 N.3     1  UNL1       -0.2697
     30 C          60.6167   86.7691   10.4518 C.3     1  UNL1        0.0938
     31 C          61.2910   86.0969   11.6110 C.3     1  UNL1        0.1081
     32 C          62.4727   82.2551   11.6077 C.3     1  UNL1        0.0332
     33 C          63.1632   83.0787   12.6541 C.ar    1  UNL1        0.0020
     34 C          63.8374   82.4066   13.8133 C.ar    1  UNL1        0.0549
     35 CL         63.8212   80.9109   13.9261 Cl      1  UNL1       -0.0825
     36 C          64.5279   83.2302   14.8597 C.ar    1  UNL1        0.0112
     37 C          64.5441   84.7258   14.7470 C.ar    1  UNL1        0.0021
     38 C          63.8699   85.3979   13.5878 C.ar    1  UNL1        0.0143
     39 C          63.1794   84.5743   12.5414 C.ar    1  UNL1        0.0447
@<TRIPOS>BOND
     1    32    33    1
     2    33    34   ar
     3    34    35    1
     4    34    36   ar
     5    36    37   ar
     6    37    38   ar
     7    38    39   ar
     8    39    26    1
     9    26    27    1
    10    27    28    1
    11    28    29    1
    12    29    25    1
    13    25    24    1
    14    24    23    1
    15    23     1    1
    16     1     2   am
    17     2     3    2
    18     2     5    1
    19     5     6   ar
    20     6     7   ar
    21     7    11    1
    22    11    12   ar
    23    12    13   ar
    24    13    14   ar
    25    14    15   ar
    26    15    16   ar
    27     7     8   ar
    28     8    17    1
    29    17    18   ar
    30    18    19   ar
    31    19    20   ar
    32    20    21   ar
    33    21    22   ar
    34     8     9   ar
    35     9    10    1
    36    29    30    1
    37    30    31    1
    38    39    33   ar
    39    31    26    1
    40     9     5   ar
    41    16    11   ar
    42    22    17   ar
    43     1     4    1
@<TRIPOS>MOLECULE
*****
 39 43 0 0 0
SMALL
GASTEIGER

@<TRIPOS>ATOM
      1 N          61.2668   90.1127    9.6707 N.am    1  UNL1       -0.2995
      2 C          61.7699   90.2137   11.0802 C.2     1  UNL1        0.2648
      3 O          61.0083   89.5633   12.1968 O.2     1  UNL1       -0.2684
      4 H          61.7667   90.5396    8.9378 H       1  UNL1        0.1498
      5 C          63.0346   90.9652   11.3731 C.ar    1  UNL1        0.1479
      6 N          63.7326   91.9129   10.4432 N.ar    1  UNL1       -0.2222
      7 C          64.9528   92.4344   11.1426 C.ar    1  UNL1        0.1475
      8 N          65.0089   91.8090   12.5049 N.ar    1  UNL1       -0.2938
      9 C          63.8234   90.9010   12.6474 C.ar    1  UNL1        0.0651
     10 C          63.4860   90.0741   13.8525 C.3     1  UNL1        0.0522
     11 C          65.9429   93.4099   10.5789 C.ar    1  UNL1        0.0345
     12 C          67.1233   92.9135    9.7977 C.ar    1  UNL1        0.0030
     13 C          68.1135   93.8891    9.2340 C.ar    1  UNL1        0.0001
     14 C          67.9232   95.3611    9.4515 C.ar    1  UNL1        0.0000
     15 C          66.7429   95.8574   10.2327 C.ar    1  UNL1        0.0001
     16 C          65.7527   94.8818   10.7964 C.ar    1  UNL1        0.0030
     17 C          66.0650   92.0494   13.5426 C.ar    1  UNL1        0.0651
     18 C          65.6739   92.4816   14.9247 C.ar    1  UNL1        0.0176
     19 C          66.7301   92.7220   15.9624 C.ar    1  UNL1        0.0015
     20 C          68.1773   92.5302   15.6179 C.ar    1  UNL1        0.0001
     21 C          68.5684   92.0980   14.2358 C.ar    1  UNL1        0.0015
     22 C          67.5123   91.8576   13.1981 C.ar    1  UNL1        0.0176
     23 C          60.0021   89.3612    9.3778 C.3     1  UNL1        0.0912
     24 C          59.8489   88.6286    8.0779 C.3     1  UNL1        0.0386
     25 C          60.4900   87.2851    7.8940 C.3     1  UNL1        0.0739
     26 N          62.4995   85.2560   11.3717 N.pl3   1  UNL1       -0.3049
     27 C          61.2922   86.1162   11.6008 C.3     1  UNL1        0.1081
     28 C          60.6224   86.7926   10.4416 C.3     1  UNL1        0.0938
     29 N          61.1598   86.6087    9.0532 N.3     1  UNL1       -0.2697
     30 C          62.3671   85.7485    8.8242 C.3     1  UNL1        0.0938
     31 C          63.0370   85.0721    9.9835 C.3     1  UNL1        0.1081
     32 C          62.4955   82.2625   11.5686 C.3     1  UNL1        0.0332
     33 C          63.1674   83.0829   12.6294 C.ar    1  UNL1        0.0020
     34 C          63.8372   82.4066   13.7887 C.ar    1  UNL1        0.0549
     35 CL         63.8352   80.9098   13.8871 Cl      1  UNL1       -0.0825
     36 C          64.5091   83.2271   14.8496 C.ar    1  UNL1        0.0112
     37 C          64.5111   84.7238   14.7512 C.ar    1  UNL1        0.0021
     38 C          63.8413   85.4001   13.5919 C.ar    1  UNL1        0.0143
     39 C          63.1694   84.5797   12.5310 C.ar    1  UNL1        0.0447
@<TRIPOS>BOND
     1    32    33    1
     2    33    34   ar
     3    34    35    1
     4    34    36   ar
     5    36    37   ar
     6    37    38   ar
     7    38    39   ar
     8    39    26    1
     9    26    27    1
    10    27    28    1
    11    28    29    1
    12    29    25    1
    13    25    24    1
    14    24    23    1
    15    23     1    1
    16     1     2   am
    17     2     3    2
    18     2     5    1
    19     5     6   ar
    20     6     7   ar
    21     7    11    1
    22    11    12   ar
    23    12    13   ar
    24    13    14   ar
    25    14    15   ar
    26    15    16   ar
    27     7     8   ar
    28     8    17    1
    29    17    18   ar
    30    18    19   ar
    31    19    20   ar
    32    20    21   ar
    33    21    22   ar
    34     8     9   ar
    35     9    10    1
    36    29    30    1
    37    30    31    1
    38    39    33   ar
    39    31    26    1
    40     9     5   ar
    41    16    11   ar
    42    22    17   ar
    43     1     4    1
@<TRIPOS>MOLECULE
*****
 39 43 0 0 0
SMALL
GASTEIGER

@<TRIPOS>ATOM
      1 N          63.0689   88.7544   15.7269 N.am    1  UNL1       -0.2995
      2 C          64.0202   88.3605   14.6360 C.2     1  UNL1        0.2648
      3 O          65.3922   88.9644   14.5831 O.2     1  UNL1       -0.2684
      4 H          62.1684   88.3581   15.7616 H       1  UNL1        0.1498
      5 C          63.5994   87.3627   13.5980 C.ar    1  UNL1        0.1479
      6 N          62.9173   87.6759   12.2993 N.ar    1  UNL1       -0.2222
      7 C          62.6831   86.3833   11.5752 C.ar    1  UNL1        0.1475
      8 N          63.2206   85.2712   12.4263 N.ar    1  UNL1       -0.2938
      9 C          63.7869   85.8765   13.6766 C.ar    1  UNL1        0.0651
     10 C          64.4281   85.1272   14.8067 C.3     1  UNL1        0.0522
     11 C          62.0268   86.2297   10.2352 C.ar    1  UNL1        0.0345
     12 C          62.7624   85.5609    9.1120 C.ar    1  UNL1        0.0030
     13 C          62.1060   85.4073    7.7721 C.ar    1  UNL1        0.0001
     14 C          60.7140   85.9225    7.5553 C.ar    1  UNL1        0.0000
     15 C          59.9784   86.5913    8.6785 C.ar    1  UNL1        0.0001
     16 C          60.6348   86.7448   10.0185 C.ar    1  UNL1        0.0030
     17 C          63.1961   83.8103   12.0869 C.ar    1  UNL1        0.0651
     18 C          63.9471   83.3056   10.8906 C.ar    1  UNL1        0.0176
     19 C          63.9225   81.8447   10.5512 C.ar    1  UNL1        0.0015
     20 C          63.1470   80.8886   11.4082 C.ar    1  UNL1        0.0001
     21 C          62.3961   81.3934   12.6045 C.ar    1  UNL1        0.0015
     22 C          62.4206   82.8542   12.9439 C.ar    1  UNL1        0.0176
     23 C          63.4897   89.7522   16.7648 C.3     1  UNL1        0.0912
     24 C          63.4549   91.2190   16.4528 C.3     1  UNL1        0.0386
     25 C          64.7353   91.9917   16.3368 C.3     1  UNL1        0.0739
     26 N          66.4999   92.8270   12.2824 N.pl3   1  UNL1       -0.3049
     27 C          65.1512   92.1801   12.3946 C.3     1  UNL1        0.1081
     28 C          64.5630   91.9017   13.7460 C.3     1  UNL1        0.0938
     29 N          65.3235   92.2701   14.9854 N.3     1  UNL1       -0.2697
     30 C          66.6722   92.9170   14.8732 C.3     1  UNL1        0.0938
     31 C          67.2604   93.1955   13.5217 C.3     1  UNL1        0.1081
     32 C          65.9519   95.4419   10.9177 C.3     1  UNL1        0.0332
     33 C          66.8141   94.4128   10.2485 C.ar    1  UNL1        0.0020
     34 C          67.4022   94.6912    8.8971 C.ar    1  UNL1        0.0549
     35 CL         67.1282   95.9987    8.2147 Cl      1  UNL1       -0.0825
     36 C          68.2644   93.6622    8.2279 C.ar    1  UNL1        0.0112
     37 C          68.5385   92.3548    8.9102 C.ar    1  UNL1        0.0021
     38 C          67.9503   92.0765   10.2617 C.ar    1  UNL1        0.0143
     39 C          67.0881   93.1055   10.9309 C.ar    1  UNL1        0.0447
@<TRIPOS>BOND
     1    32    33    1
     2    33    34   ar
     3    34    35    1
     4    34    36   ar
     5    36    37   ar
     6    37    38   ar
     7    38    39   ar
     8    39    26    1
     9    26    27    1
    10    27    28    1
    11    28    29    1
    12    29    25    1
    13    25    24    1
    14    24    23    1
    15    23     1    1
    16     1     2   am
    17     2     3    2
    18     2     5    1
    19     5     6   ar
    20     6     7   ar
    21     7    11    1
    22    11    12   ar
    23    12    13   ar
    24    13    14   ar
    25    14    15   ar
    26    15    16   ar
    27     7     8   ar
    28     8    17    1
    29    17    18   ar
    30    18    19   ar
    31    19    20   ar
    32    20    21   ar
    33    21    22   ar
    34     8     9   ar
    35     9    10    1
    36    29    30    1
    37    30    31    1
    38    39    33   ar
    39    31    26    1
    40     9     5   ar
    41    16    11   ar
    42    22    17   ar
    43     1     4    1
@<TRIPOS>MOLECULE
*****
 39 43 0 0 0
SMALL
GASTEIGER

@<TRIPOS>ATOM
      1 N          63.0681   88.6687   15.7735 N.am    1  UNL1       -0.2995
      2 C          63.9981   88.3061   14.6538 C.2     1  UNL1        0.2648
      3 O          65.3425   88.9635   14.5527 O.2     1  UNL1       -0.2684
      4 H          62.1857   88.2372   15.8399 H       1  UNL1        0.1498
      5 C          63.5835   87.2859   13.6352 C.ar    1  UNL1        0.1479
      6 N          63.6808   85.7969   13.7885 N.ar    1  UNL1       -0.2222
      7 C          63.1563   85.1664   12.5325 C.ar    1  UNL1        0.1475
      8 N          62.7349   86.2657   11.6030 N.ar    1  UNL1       -0.2938
      9 C          62.9989   87.5757   12.2845 C.ar    1  UNL1        0.0651
     10 C          62.7263   88.9363   11.7153 C.3     1  UNL1        0.0522
     11 C          63.0686   83.6950   12.2548 C.ar    1  UNL1        0.0345
     12 C          63.6400   83.1360   10.9856 C.ar    1  UNL1        0.0030
     13 C          63.5522   81.6645   10.7079 C.ar    1  UNL1        0.0001
     14 C          62.8932   80.7521   11.6995 C.ar    1  UNL1        0.0000
     15 C          62.3218   81.3112   12.9687 C.ar    1  UNL1        0.0001
     16 C          62.4095   82.7826   13.2464 C.ar    1  UNL1        0.0030
     17 C          62.1519   86.0866   10.2327 C.ar    1  UNL1        0.0651
     18 C          60.7430   86.5199    9.9545 C.ar    1  UNL1        0.0176
     19 C          60.1600   86.3408    8.5841 C.ar    1  UNL1        0.0015
     20 C          60.9858   85.7283    7.4919 C.ar    1  UNL1        0.0001
     21 C          62.3947   85.2950    7.7701 C.ar    1  UNL1        0.0015
     22 C          62.9777   85.4742    9.1405 C.ar    1  UNL1        0.0176
     23 C          63.4826   89.6889   16.7921 C.3     1  UNL1        0.0912
     24 C          63.3957   91.1508   16.4678 C.3     1  UNL1        0.0386
     25 C          64.6469   91.9717   16.3644 C.3     1  UNL1        0.0739
     26 N          66.4575   92.8156   12.3321 N.pl3   1  UNL1       -0.3049
     27 C          67.1871   93.2151   13.5803 C.3     1  UNL1        0.1081
     28 C          66.5836   92.9338   14.9244 C.3     1  UNL1        0.0938
     29 N          65.2504   92.2530   15.0203 N.3     1  UNL1       -0.2697
     30 C          64.5207   91.8535   13.7721 C.3     1  UNL1        0.0938
     31 C          65.1243   92.1348   12.4280 C.3     1  UNL1        0.1081
     32 C          65.8968   95.4192   10.9512 C.3     1  UNL1        0.0332
     33 C          66.7807   94.3987   10.2975 C.ar    1  UNL1        0.0020
     34 C          67.3843   94.6800    8.9535 C.ar    1  UNL1        0.0549
     35 CL         67.1039   95.9818    8.2630 Cl      1  UNL1       -0.0825
     36 C          68.2682   93.6595    8.2998 C.ar    1  UNL1        0.0112
     37 C          68.5486   92.3577    8.9903 C.ar    1  UNL1        0.0021
     38 C          67.9450   92.0764   10.3343 C.ar    1  UNL1        0.0143
     39 C          67.0611   93.0970   10.9880 C.ar    1  UNL1        0.0447
@<TRIPOS>BOND
     1    32    33    1
     2    33    34   ar
     3    34    35    1
     4    34    36   ar
     5    36    37   ar
     6    37    38   ar
     7    38    39   ar
     8    39    26    1
     9    26    27    1
    10    27    28    1
    11    28    29    1
    12    29    25    1
    13    25    24    1
    14    24    23    1
    15    23     1    1
    16     1     2   am
    17     2     3    2
    18     2     5    1
    19     5     6   ar
    20     6     7   ar
    21     7    11    1
    22    11    12   ar
    23    12    13   ar
    24    13    14   ar
    25    14    15   ar
    26    15    16   ar
    27     7     8   ar
    28     8    17    1
    29    17    18   ar
    30    18    19   ar
    31    19    20   ar
    32    20    21   ar
    33    21    22   ar
    34     8     9   ar
    35     9    10    1
    36    29    30    1
    37    30    31    1
    38    39    33   ar
    39    31    26    1
    40     9     5   ar
    41    16    11   ar
    42    22    17   ar
    43     1     4    1
@<TRIPOS>MOLECULE
*****
 39 43 0 0 0
SMALL
GASTEIGER

@<TRIPOS>ATOM
      1 N          63.0045   88.3545   15.7538 N.am    1  UNL1       -0.2995
      2 C          63.9561   88.0237   14.6424 C.2     1  UNL1        0.2648
      3 O          65.2971   88.6927   14.5792 O.2     1  UNL1       -0.2684
      4 H          62.1243   87.9154   15.7953 H       1  UNL1        0.1498
      5 C          63.5666   87.0238   13.5943 C.ar    1  UNL1        0.1479
      6 N          63.6530   85.5319   13.7236 N.ar    1  UNL1       -0.2222
      7 C          63.1621   84.9263   12.4421 C.ar    1  UNL1        0.1475
      8 N          62.7723   86.0439   11.5208 N.ar    1  UNL1       -0.2938
      9 C          63.0222   87.3403   12.2328 C.ar    1  UNL1        0.0651
     10 C          62.7719   88.7122   11.6805 C.3     1  UNL1        0.0522
     11 C          63.0761   83.4605   12.1357 C.ar    1  UNL1        0.0345
     12 C          62.4180   82.5281   13.1092 C.ar    1  UNL1        0.0030
     13 C          62.3320   81.0623   12.8027 C.ar    1  UNL1        0.0001
     14 C          62.9041   80.5288   11.5227 C.ar    1  UNL1        0.0000
     15 C          63.5621   81.4612   10.5493 C.ar    1  UNL1        0.0001
     16 C          63.6481   82.9271   10.8558 C.ar    1  UNL1        0.0030
     17 C          62.2280   85.8920   10.1313 C.ar    1  UNL1        0.0651
     18 C          63.0841   85.3002    9.0510 C.ar    1  UNL1        0.0176
     19 C          62.5398   85.1482    7.6615 C.ar    1  UNL1        0.0015
     20 C          61.1395   85.5881    7.3523 C.ar    1  UNL1        0.0001
     21 C          60.2835   86.1799    8.4326 C.ar    1  UNL1        0.0015
     22 C          60.8277   86.3319    9.8220 C.ar    1  UNL1        0.0176
     23 C          63.3940   89.3544   16.8019 C.3     1  UNL1        0.0912
     24 C          63.3135   90.8224   16.5047 C.3     1  UNL1        0.0386
     25 C          64.5674   91.6420   16.4276 C.3     1  UNL1        0.0739
     26 N          66.0638   93.0955   12.4404 N.pl3   1  UNL1       -0.3049
     27 C          64.9256   92.1206   12.5043 C.3     1  UNL1        0.1081
     28 C          64.4268   91.6361   13.8334 C.3     1  UNL1        0.0938
     29 N          65.0662   92.1265   15.0986 N.3     1  UNL1       -0.2697
     30 C          66.2044   93.1014   15.0347 C.3     1  UNL1        0.0938
     31 C          66.7031   93.5859   13.7055 C.3     1  UNL1        0.1081
     32 C          68.1256   91.5115   10.9438 C.3     1  UNL1        0.0332
     33 C          67.5934   92.7880   10.3630 C.ar    1  UNL1        0.0020
     34 C          68.0922   93.2725    9.0339 C.ar    1  UNL1        0.0549
     35 CL         69.1231   92.4805    8.2856 Cl      1  UNL1       -0.0825
     36 C          67.5600   94.5490    8.4531 C.ar    1  UNL1        0.0112
     37 C          66.5291   95.3410    9.2014 C.ar    1  UNL1        0.0021
     38 C          66.0304   94.8565   10.5304 C.ar    1  UNL1        0.0143
     39 C          66.5625   93.5800   11.1112 C.ar    1  UNL1        0.0447
@<TRIPOS>BOND
     1    32    33    1
     2    33    34   ar
     3    34    35    1
     4    34    36   ar
     5    36    37   ar
     6    37    38   ar
     7    38    39   ar
     8    39    26    1
     9    26    27    1
    10    27    28    1
    11    28    29    1
    12    29    25    1
    13    25    24    1
    14    24    23    1
    15    23     1    1
    16     1     2   am
    17     2     3    2
    18     2     5    1
    19     5     6   ar
    20     6     7   ar
    21     7    11    1
    22    11    12   ar
    23    12    13   ar
    24    13    14   ar
    25    14    15   ar
    26    15    16   ar
    27     7     8   ar
    28     8    17    1
    29    17    18   ar
    30    18    19   ar
    31    19    20   ar
    32    20    21   ar
    33    21    22   ar
    34     8     9   ar
    35     9    10    1
    36    29    30    1
    37    30    31    1
    38    39    33   ar
    39    31    26    1
    40     9     5   ar
    41    16    11   ar
    42    22    17   ar
    43     1     4    1
@<TRIPOS>MOLECULE
*****
 39 43 0 0 0
SMALL
GASTEIGER

@<TRIPOS>ATOM
      1 N          59.5160   90.2968    6.3850 N.am    1  UNL1       -0.2995
      2 C          59.1654   89.1093    7.2318 C.2     1  UNL1        0.2648
      3 O          57.8532   88.4095    7.0358 O.2     1  UNL1       -0.2684
      4 H          60.3772   90.7561    6.5136 H       1  UNL1        0.1498
      5 C          60.1270   88.6217    8.2746 C.ar    1  UNL1        0.1479
      6 N          60.8286   89.4707    9.2929 N.ar    1  UNL1       -0.2222
      7 C          61.6911   88.5731   10.1299 C.ar    1  UNL1        0.1475
      8 N          61.5226   87.1693    9.6288 N.ar    1  UNL1       -0.2938
      9 C          60.5560   87.1993    8.4821 C.ar    1  UNL1        0.0651
     10 C          60.0986   86.0150    7.6834 C.3     1  UNL1        0.0522
     11 C          62.5681   89.0036   11.2680 C.ar    1  UNL1        0.0345
     12 C          63.0061   90.4340   11.3779 C.ar    1  UNL1        0.0030
     13 C          63.8831   90.8645   12.5161 C.ar    1  UNL1        0.0001
     14 C          64.3222   89.8645   13.5444 C.ar    1  UNL1        0.0000
     15 C          63.8842   88.4341   13.4345 C.ar    1  UNL1        0.0001
     16 C          63.0071   88.0037   12.2963 C.ar    1  UNL1        0.0030
     17 C          62.2016   85.9497   10.1779 C.ar    1  UNL1        0.0651
     18 C          63.1366   85.1581    9.3124 C.ar    1  UNL1        0.0176
     19 C          63.8156   83.9385    9.8615 C.ar    1  UNL1        0.0015
     20 C          63.5594   83.5104   11.2761 C.ar    1  UNL1        0.0001
     21 C          62.6244   84.3020   12.1416 C.ar    1  UNL1        0.0015
     22 C          61.9454   85.5216   11.5925 C.ar    1  UNL1        0.0176
     23 C          58.5543   90.7845    5.3422 C.3     1  UNL1        0.0912
     24 C          58.9827   91.8326    4.3585 C.3     1  UNL1        0.0386
     25 C          60.4123   92.2854    4.3199 C.3     1  UNL1        0.0739
     26 N          62.2850   93.4937    0.4105 N.pl3   1  UNL1       -0.3049
     27 C          63.0676   92.6783    1.3967 C.3     1  UNL1        0.1081
     28 C          62.4434   92.2755    2.6998 C.3     1  UNL1        0.0938
     29 N          61.0365   92.6882    3.0168 N.3     1  UNL1       -0.2697
     30 C          60.2539   93.5036    2.0306 C.3     1  UNL1        0.0938
     31 C          60.8782   93.9064    0.7274 C.3     1  UNL1        0.1081
     32 C          64.3413   95.6771    0.3437 C.3     1  UNL1        0.0332
     33 C          63.9374   94.9881   -0.9260 C.ar    1  UNL1        0.0020
     34 C          64.5617   95.3908   -2.2291 C.ar    1  UNL1        0.0549
     35 CL         65.5899   96.4825   -2.2625 Cl      1  UNL1       -0.0825
     36 C          64.1578   94.7018   -3.4988 C.ar    1  UNL1        0.0112
     37 C          63.1296   93.6102   -3.4654 C.ar    1  UNL1        0.0021
     38 C          62.5054   93.2075   -2.1623 C.ar    1  UNL1        0.0143
     39 C          62.9093   93.8964   -0.8926 C.ar    1  UNL1        0.0447
@<TRIPOS>BOND
     1    32    33    1
     2    33    34   ar
     3    34    35    1
     4    34    36   ar
     5    36    37   ar
     6    37    38   ar
     7    38    39   ar
     8    39    26    1
     9    26    27    1
    10    27    28    1
    11    28    29    1
    12    29    25    1
    13    25    24    1
    14    24    23    1
    15    23     1    1
    16     1     2   am
    17     2     3    2
    18     2     5    1
    19     5     6   ar
    20     6     7   ar
    21     7    11    1
    22    11    12   ar
    23    12    13   ar
    24    13    14   ar
    25    14    15   ar
    26    15    16   ar
    27     7     8   ar
    28     8    17    1
    29    17    18   ar
    30    18    19   ar
    31    19    20   ar
    32    20    21   ar
    33    21    22   ar
    34     8     9   ar
    35     9    10    1
    36    29    30    1
    37    30    31    1
    38    39    33   ar
    39    31    26    1
    40     9     5   ar
    41    16    11   ar
    42    22    17   ar
    43     1     4    1
@<TRIPOS>MOLECULE
*****
 39 43 0 0 0
SMALL
GASTEIGER

@<TRIPOS>ATOM
      1 N          59.7945   89.3678    7.2586 N.am    1  UNL1       -0.2995
      2 C          59.5873   88.0258    7.8961 C.2     1  UNL1        0.2648
      3 O          58.4281   87.1692    7.4808 O.2     1  UNL1       -0.2684
      4 H          60.5554   89.9300    7.5311 H       1  UNL1        0.1498
      5 C          60.5393   87.5406    8.9488 C.ar    1  UNL1        0.1479
      6 N          61.0403   86.1353    9.1043 N.ar    1  UNL1       -0.2222
      7 C          61.9681   86.1016   10.2825 C.ar    1  UNL1        0.1475
      8 N          62.0405   87.4861   10.8551 N.ar    1  UNL1       -0.2938
      9 C          61.1575   88.3755   10.0309 C.ar    1  UNL1        0.0651
     10 C          60.9322   89.8421   10.2502 C.3     1  UNL1        0.0522
     11 C          62.6957   84.8953   10.7976 C.ar    1  UNL1        0.0345
     12 C          62.3814   84.3555   12.1613 C.ar    1  UNL1        0.0030
     13 C          63.1091   83.1491   12.6763 C.ar    1  UNL1        0.0001
     14 C          64.1510   82.4826   11.8276 C.ar    1  UNL1        0.0000
     15 C          64.4652   83.0225   10.4639 C.ar    1  UNL1        0.0001
     16 C          63.7376   84.2288    9.9489 C.ar    1  UNL1        0.0030
     17 C          62.8533   87.9073   12.0434 C.ar    1  UNL1        0.0651
     18 C          63.3423   86.8793   13.0202 C.ar    1  UNL1        0.0176
     19 C          64.1550   87.3005   14.2084 C.ar    1  UNL1        0.0015
     20 C          64.4788   88.7498   14.4199 C.ar    1  UNL1        0.0001
     21 C          63.9898   89.7778   13.4431 C.ar    1  UNL1        0.0015
     22 C          63.1771   89.3566   12.2549 C.ar    1  UNL1        0.0176
     23 C          58.8425   89.8530    6.2059 C.3     1  UNL1        0.0912
     24 C          59.2759   90.9079    5.2315 C.3     1  UNL1        0.0386
     25 C          60.7278   91.2642    5.1085 C.3     1  UNL1        0.0739
     26 N          62.2899   93.0503    1.2849 N.pl3   1  UNL1       -0.3049
     27 C          60.9261   93.4243    1.7851 C.3     1  UNL1        0.1081
     28 C          60.4054   92.8289    3.0596 C.3     1  UNL1        0.0938
     29 N          61.2485   91.8596    3.8340 N.3     1  UNL1       -0.2697
     30 C          62.6123   91.4856    3.3338 C.3     1  UNL1        0.0938
     31 C          63.1330   92.0810    2.0592 C.3     1  UNL1        0.1081
     32 C          64.5089   95.0675    1.3683 C.3     1  UNL1        0.0332
     33 C          63.9201   94.6543    0.0521 C.ar    1  UNL1        0.0020
     34 C          64.4407   95.2496   -1.2224 C.ar    1  UNL1        0.0549
     35 CL         65.5503   96.2583   -1.1807 Cl      1  UNL1       -0.0825
     36 C          63.8519   94.8364   -2.5387 C.ar    1  UNL1        0.0112
     37 C          62.7424   93.8278   -2.5804 C.ar    1  UNL1        0.0021
     38 C          62.2218   93.2325   -1.3059 C.ar    1  UNL1        0.0143
     39 C          62.8106   93.6457    0.0104 C.ar    1  UNL1        0.0447
@<TRIPOS>BOND
     1    32    33    1
     2    33    34   ar
     3    34    35    1
     4    34    36   ar
     5    36    37   ar
     6    37    38   ar
     7    38    39   ar
     8    39    26    1
     9    26    27    1
    10    27    28    1
    11    28    29    1
    12    29    25    1
    13    25    24    1
    14    24    23    1
    15    23     1    1
    16     1     2   am
    17     2     3    2
    18     2     5    1
    19     5     6   ar
    20     6     7   ar
    21     7    11    1
    22    11    12   ar
    23    12    13   ar
    24    13    14   ar
    25    14    15   ar
    26    15    16   ar
    27     7     8   ar
    28     8    17    1
    29    17    18   ar
    30    18    19   ar
    31    19    20   ar
    32    20    21   ar
    33    21    22   ar
    34     8     9   ar
    35     9    10    1
    36    29    30    1
    37    30    31    1
    38    39    33   ar
    39    31    26    1
    40     9     5   ar
    41    16    11   ar
    42    22    17   ar
    43     1     4    1
@<TRIPOS>MOLECULE
*****
 39 43 0 0 0
SMALL
GASTEIGER

@<TRIPOS>ATOM
      1 N          61.1827   90.0209   10.0801 N.am    1  UNL1       -0.2995
      2 C          61.7244   90.1144   11.4758 C.2     1  UNL1        0.2648
      3 O          60.9784   89.4831   12.6137 O.2     1  UNL1       -0.2684
      4 H          61.6723   90.4353    9.3332 H       1  UNL1        0.1498
      5 C          63.0121   90.8392   11.7335 C.ar    1  UNL1        0.1479
      6 N          63.7714   90.8550   13.0270 N.ar    1  UNL1       -0.2222
      7 C          64.9952   91.7011   12.8359 C.ar    1  UNL1        0.1475
      8 N          64.9922   92.2082   11.4242 N.ar    1  UNL1       -0.2938
      9 C          63.7666   91.6756   10.7428 C.ar    1  UNL1        0.0651
     10 C          63.3659   91.9339    9.3207 C.3     1  UNL1        0.0522
     11 C          66.0387   91.9894   13.8741 C.ar    1  UNL1        0.0345
     12 C          65.6274   92.3924   15.2592 C.ar    1  UNL1        0.0030
     13 C          66.6710   92.6807   16.2973 C.ar    1  UNL1        0.0001
     14 C          68.1258   92.5661   15.9504 C.ar    1  UNL1        0.0000
     15 C          68.5371   92.1631   14.5653 C.ar    1  UNL1        0.0001
     16 C          67.4935   91.8748   13.5272 C.ar    1  UNL1        0.0030
     17 C          66.0323   93.0927   10.8029 C.ar    1  UNL1        0.0651
     18 C          65.9319   94.5826   10.9451 C.ar    1  UNL1        0.0176
     19 C          66.9720   95.4671   10.3238 C.ar    1  UNL1        0.0015
     20 C          68.1124   94.8616    9.5604 C.ar    1  UNL1        0.0001
     21 C          68.2127   93.3718    9.4182 C.ar    1  UNL1        0.0015
     22 C          67.1727   92.4873   10.0395 C.ar    1  UNL1        0.0176
     23 C          59.8950   89.2961    9.8224 C.3     1  UNL1        0.0912
     24 C          59.6783   88.5937    8.5148 C.3     1  UNL1        0.0386
     25 C          60.4168   87.3230    8.2147 C.3     1  UNL1        0.0739
     26 N          62.5516   85.1286   11.5127 N.pl3   1  UNL1       -0.3049
     27 C          61.3782   86.0064   11.8330 C.3     1  UNL1        0.1081
     28 C          60.6666   86.7378   10.7337 C.3     1  UNL1        0.0938
     29 N          61.1284   86.5916    9.3140 N.3     1  UNL1       -0.2697
     30 C          62.3018   85.7138    8.9937 C.3     1  UNL1        0.0938
     31 C          63.0134   84.9823   10.0931 C.3     1  UNL1        0.1081
     32 C          62.4376   82.1335   11.6404 C.3     1  UNL1        0.0332
     33 C          63.2062   82.8996   12.6759 C.ar    1  UNL1        0.0020
     34 C          63.9178   82.1682   13.7752 C.ar    1  UNL1        0.0549
     35 CL         63.8608   80.6705   13.8391 Cl      1  UNL1       -0.0825
     36 C          64.6864   82.9343   14.8108 C.ar    1  UNL1        0.0112
     37 C          64.7435   84.4318   14.7469 C.ar    1  UNL1        0.0021
     38 C          64.0319   85.1632   13.6476 C.ar    1  UNL1        0.0143
     39 C          63.2632   84.3971   12.6121 C.ar    1  UNL1        0.0447
@<TRIPOS>BOND
     1    32    33    1
     2    33    34   ar
     3    34    35    1
     4    34    36   ar
     5    36    37   ar
     6    37    38   ar
     7    38    39   ar
     8    39    26    1
     9    26    27    1
    10    27    28    1
    11    28    29    1
    12    29    25    1
    13    25    24    1
    14    24    23    1
    15    23     1    1
    16     1     2   am
    17     2     3    2
    18     2     5    1
    19     5     6   ar
    20     6     7   ar
    21     7    11    1
    22    11    12   ar
    23    12    13   ar
    24    13    14   ar
    25    14    15   ar
    26    15    16   ar
    27     7     8   ar
    28     8    17    1
    29    17    18   ar
    30    18    19   ar
    31    19    20   ar
    32    20    21   ar
    33    21    22   ar
    34     8     9   ar
    35     9    10    1
    36    29    30    1
    37    30    31    1
    38    39    33   ar
    39    31    26    1
    40     9     5   ar
    41    16    11   ar
    42    22    17   ar
    43     1     4    1
@<TRIPOS>MOLECULE
*****
 39 43 0 0 0
SMALL
GASTEIGER

@<TRIPOS>ATOM
      1 N          63.3316   89.2012   16.3093 N.am    1  UNL1       -0.2995
      2 C          63.2249   89.8989   14.9857 C.2     1  UNL1        0.2648
      3 O          61.9819   89.7528   14.1589 O.2     1  UNL1       -0.2684
      4 H          64.1474   89.2971   16.8520 H       1  UNL1        0.1498
      5 C          64.3613   90.7427   14.4889 C.ar    1  UNL1        0.1479
      6 N          65.5551   91.1731   15.2886 N.ar    1  UNL1       -0.2222
      7 C          66.4350   92.0006   14.3992 C.ar    1  UNL1        0.1475
      8 N          65.7850   92.0815   13.0498 N.ar    1  UNL1       -0.2938
      9 C          64.5033   91.3041   13.1051 C.ar    1  UNL1        0.0651
     10 C          63.5341   91.1203   11.9753 C.3     1  UNL1        0.0522
     11 C          67.7363   92.6356   14.7904 C.ar    1  UNL1        0.0345
     12 C          67.7517   93.7736   15.7676 C.ar    1  UNL1        0.0030
     13 C          69.0532   94.4086   16.1588 C.ar    1  UNL1        0.0001
     14 C          70.3392   93.9056   15.5728 C.ar    1  UNL1        0.0000
     15 C          70.3237   92.7677   14.5957 C.ar    1  UNL1        0.0001
     16 C          69.0223   92.1327   14.2045 C.ar    1  UNL1        0.0030
     17 C          66.3223   92.8117   11.8547 C.ar    1  UNL1        0.0651
     18 C          65.9394   94.2421   11.6151 C.ar    1  UNL1        0.0176
     19 C          66.4767   94.9723   10.4200 C.ar    1  UNL1        0.0015
     20 C          67.3968   94.2720    9.4645 C.ar    1  UNL1        0.0001
     21 C          67.7796   92.8416    9.7041 C.ar    1  UNL1        0.0015
     22 C          67.2424   92.1115   10.8992 C.ar    1  UNL1        0.0176
     23 C          62.1952   88.3575   16.8060 C.3     1  UNL1        0.0912
     24 C          62.4135   87.3953   17.9359 C.3     1  UNL1        0.0386
     25 C          62.8551   85.9906   17.6500 C.3     1  UNL1        0.0739
     26 N          63.3694   84.6152   13.3964 N.pl3   1  UNL1       -0.3049
     27 C          62.2090   84.1221   14.2089 C.3     1  UNL1        0.1081
     28 C          62.0375   84.5805   15.6268 C.3     1  UNL1        0.0938
     29 N          63.0266   85.5321   16.2322 N.3     1  UNL1       -0.2697
     30 C          64.1870   86.0252   15.4196 C.3     1  UNL1        0.0938
     31 C          64.3584   85.5667   14.0016 C.3     1  UNL1        0.1081
     32 C          62.2904   86.2750   11.1423 C.3     1  UNL1        0.0332
     33 C          63.0013   84.9866   10.8514 C.ar    1  UNL1        0.0020
     34 C          63.1727   84.5280    9.4336 C.ar    1  UNL1        0.0549
     35 CL         62.6332   85.3580    8.3065 Cl      1  UNL1       -0.0825
     36 C          63.8836   83.2396    9.1427 C.ar    1  UNL1        0.0112
     37 C          64.4230   82.4097   10.2697 C.ar    1  UNL1        0.0021
     38 C          64.2516   82.8682   11.6876 C.ar    1  UNL1        0.0143
     39 C          63.5408   84.1567   11.9784 C.ar    1  UNL1        0.0447
@<TRIPOS>BOND
     1    32    33    1
     2    33    34   ar
     3    34    35    1
     4    34    36   ar
     5    36    37   ar
     6    37    38   ar
     7    38    39   ar
     8    39    26    1
     9    26    27    1
    10    27    28    1
    11    28    29    1
    12    29    25    1
    13    25    24    1
    14    24    23    1
    15    23     1    1
    16     1     2   am
    17     2     3    2
    18     2     5    1
    19     5     6   ar
    20     6     7   ar
    21     7    11    1
    22    11    12   ar
    23    12    13   ar
    24    13    14   ar
    25    14    15   ar
    26    15    16   ar
    27     7     8   ar
    28     8    17    1
    29    17    18   ar
    30    18    19   ar
    31    19    20   ar
    32    20    21   ar
    33    21    22   ar
    34     8     9   ar
    35     9    10    1
    36    29    30    1
    37    30    31    1
    38    39    33   ar
    39    31    26    1
    40     9     5   ar
    41    16    11   ar
    42    22    17   ar
    43     1     4    1
