@<TRIPOS>MOLECULE
*****
 31 35 0 0 0
SMALL
GASTEIGER

@<TRIPOS>ATOM
      1 C          63.2566   82.8402   12.8895 C.ar    1  UNL1        0.0859
      2 C          64.0314   83.1152   14.1440 C.ar    1  UNL1        0.0206
      3 C          64.3281   84.5291   14.5475 C.ar    1  UNL1        0.0174
      4 C          63.8500   85.6680   13.6964 C.ar    1  UNL1        0.0631
      5 C          63.0752   85.3930   12.4418 C.ar    1  UNL1        0.0657
      6 C          62.7785   83.9791   12.0383 C.ar    1  UNL1        0.0351
      7 N          62.5103   86.3737   11.4575 N.am    1  UNL1       -0.2793
      8 C          62.5806   87.8719   11.4847 C.2     1  UNL1        0.2522
      9 O          61.9096   88.5758   10.3427 O.2     1  UNL1       -0.2697
     10 C          63.2333   88.7592   12.5030 C.ar    1  UNL1        0.0853
     11 C          63.0709   90.2084   12.1514 C.ar    1  UNL1        0.0086
     12 C          63.6521   91.2659   13.0425 C.ar    1  UNL1        0.0153
     13 C          64.3956   90.8742   14.2850 C.ar    1  UNL1        0.0648
     14 N          64.5579   89.4250   14.6364 N.ar    1  UNL1       -0.2344
     15 C          63.9768   88.3675   13.7454 C.ar    1  UNL1        0.1361
     16 N          64.2512   86.9918   14.2766 N.pl3   1  UNL1       -0.2969
     17 H          62.0298   85.9825   10.6925 H       1  UNL1        0.1552
     18 H          64.7623   86.9525   15.1171 H       1  UNL1        0.1536
     19 C          62.7010   78.4523   10.0053 C.3     1  UNL1        0.0756
     20 C          62.7045   79.4094   11.1602 C.ar    1  UNL1        0.1613
     21 N          62.3018   79.0916   12.5699 N.ar    1  UNL1       -0.2073
     22 C          62.4597   80.3381   13.3892 C.ar    1  UNL1        0.2013
     23 N          62.9598   81.4263   12.4859 N.ar    1  UNL1       -0.2083
     24 N          63.1111   80.8523   11.1084 N.ar    1  UNL1       -0.1487
     25 C          64.9768   91.9317   15.1760 C.3     1  UNL1        0.0721
     26 C          66.4445   92.2363   15.1198 C.ar    1  UNL1       -0.0162
     27 C          67.1025   92.9679   16.2520 C.ar    1  UNL1       -0.0039
     28 C          68.5702   93.2726   16.1958 C.ar    1  UNL1       -0.0003
     29 C          69.3799   92.8455   15.0075 C.ar    1  UNL1       -0.0000
     30 C          68.7219   92.1139   13.8754 C.ar    1  UNL1       -0.0003
     31 C          67.2542   91.8092   13.9315 C.ar    1  UNL1       -0.0039
@<TRIPOS>BOND
     1    19    20    1
     2    20    21   ar
     3    21    22   ar
     4    22    23   ar
     5    23     1    1
     6     1     2   ar
     7     2     3   ar
     8     3     4   ar
     9     4     5   ar
    10     5     6   ar
    11     5     7    1
    12     7     8   am
    13     8     9    2
    14     8    10    1
    15    10    11   ar
    16    11    12   ar
    17    12    13   ar
    18    13    25    1
    19    25    26    1
    20    26    27   ar
    21    27    28   ar
    22    28    29   ar
    23    29    30   ar
    24    30    31   ar
    25    13    14   ar
    26    14    15   ar
    27    15    16    1
    28    23    24   ar
    29    24    20   ar
    30     6     1   ar
    31    15    10   ar
    32    16     4    1
    33    31    26   ar
    34     7    17    1
    35    16    18    1
@<TRIPOS>MOLECULE
*****
 31 35 0 0 0
SMALL
GASTEIGER

@<TRIPOS>ATOM
      1 C          59.8296   89.1013    7.5837 C.ar    1  UNL1        0.0859
      2 C          59.6158   87.6167    7.5984 C.ar    1  UNL1        0.0206
      3 C          60.2514   86.7781    8.6673 C.ar    1  UNL1        0.0174
      4 C          61.1009   87.4240    9.7215 C.ar    1  UNL1        0.0631
      5 C          61.3147   88.9086    9.7067 C.ar    1  UNL1        0.0657
      6 C          60.6790   89.7472    8.6378 C.ar    1  UNL1        0.0351
      7 N          62.1183   89.7472   10.6558 N.am    1  UNL1       -0.2793
      8 C          62.9066   89.3084   11.8541 C.2     1  UNL1        0.2522
      9 O          63.6084   90.3997   12.6068 O.2     1  UNL1       -0.2697
     10 C          63.0860   87.9225   12.3993 C.ar    1  UNL1        0.0853
     11 C          63.9570   87.9225   13.6205 C.ar    1  UNL1        0.0086
     12 C          64.2634   86.6332   14.3232 C.ar    1  UNL1        0.0153
     13 C          63.6987   85.3438   13.8047 C.ar    1  UNL1        0.0648
     14 N          62.8278   85.3439   12.5835 N.ar    1  UNL1       -0.2344
     15 C          62.5214   86.6332   11.8808 C.ar    1  UNL1        0.1361
     16 N          61.6379   86.4114   10.6890 N.pl3   1  UNL1       -0.2969
     17 H          62.1299   90.7135   10.4673 H       1  UNL1        0.1552
     18 H          61.3759   85.4777   10.5194 H       1  UNL1        0.1536
     19 C          59.1734   92.4511    3.5551 C.3     1  UNL1        0.0756
     20 C          58.8923   91.4797    4.6630 C.ar    1  UNL1        0.1613
     21 N          57.5393   90.9815    5.0767 N.ar    1  UNL1       -0.2073
     22 C          57.7257   90.0300    6.2211 C.ar    1  UNL1        0.2013
     23 N          59.1940   89.9400    6.5147 N.ar    1  UNL1       -0.2083
     24 N          59.9150   90.8360    5.5517 N.ar    1  UNL1       -0.1487
     25 C          64.0051   84.0545   14.5074 C.3     1  UNL1        0.0721
     26 C          63.3298   82.7865   14.0761 C.ar    1  UNL1       -0.0162
     27 C          62.0030   82.4061   14.6635 C.ar    1  UNL1       -0.0039
     28 C          61.3276   81.1380   14.2323 C.ar    1  UNL1       -0.0003
     29 C          61.9791   80.2503   13.2137 C.ar    1  UNL1       -0.0000
     30 C          63.3059   80.6306   12.6263 C.ar    1  UNL1       -0.0003
     31 C          63.9813   81.8987   13.0575 C.ar    1  UNL1       -0.0039
@<TRIPOS>BOND
     1    19    20    1
     2    20    21   ar
     3    21    22   ar
     4    22    23   ar
     5    23     1    1
     6     1     2   ar
     7     2     3   ar
     8     3     4   ar
     9     4     5   ar
    10     5     6   ar
    11     5     7    1
    12     7     8   am
    13     8     9    2
    14     8    10    1
    15    10    11   ar
    16    11    12   ar
    17    12    13   ar
    18    13    25    1
    19    25    26    1
    20    26    27   ar
    21    27    28   ar
    22    28    29   ar
    23    29    30   ar
    24    30    31   ar
    25    13    14   ar
    26    14    15   ar
    27    15    16    1
    28    23    24   ar
    29    24    20   ar
    30     6     1   ar
    31    15    10   ar
    32    16     4    1
    33    31    26   ar
    34     7    17    1
    35    16    18    1
@<TRIPOS>MOLECULE
*****
 31 35 0 0 0
SMALL
GASTEIGER

@<TRIPOS>ATOM
      1 C          63.0427   82.5920   12.7847 C.ar    1  UNL1        0.0859
      2 C          63.5826   83.5275   11.7439 C.ar    1  UNL1        0.0206
      3 C          63.8165   84.9703   12.0812 C.ar    1  UNL1        0.0174
      4 C          63.5105   85.4774   13.4593 C.ar    1  UNL1        0.0631
      5 C          62.9706   84.5419   14.5001 C.ar    1  UNL1        0.0657
      6 C          62.7367   83.0992   14.1628 C.ar    1  UNL1        0.0351
      7 N          62.6014   84.8387   15.9233 N.am    1  UNL1       -0.2793
      8 C          62.6810   86.1445   16.6573 C.2     1  UNL1        0.2522
      9 O          62.2329   86.1149   18.0885 O.2     1  UNL1       -0.2697
     10 C          63.1494   87.4758   16.1493 C.ar    1  UNL1        0.0853
     11 C          63.0675   88.5285   17.2147 C.ar    1  UNL1        0.0086
     12 C          63.4902   89.9357   16.9127 C.ar    1  UNL1        0.0153
     13 C          63.9947   90.2902   15.5453 C.ar    1  UNL1        0.0648
     14 N          64.0765   89.2375   14.4799 N.ar    1  UNL1       -0.2344
     15 C          63.6539   87.8303   14.7819 C.ar    1  UNL1        0.1361
     16 N          63.8146   86.9409   13.5847 N.pl3   1  UNL1       -0.2969
     17 H          62.2620   84.0756   16.4446 H       1  UNL1        0.1552
     18 H          64.1662   87.3751   12.7741 H       1  UNL1        0.1536
     19 C          62.6902   78.0536   10.1089 C.3     1  UNL1        0.0756
     20 C          62.6468   79.0631   11.2175 C.ar    1  UNL1        0.1613
     21 N          62.2508   78.7949   12.6393 N.ar    1  UNL1       -0.2073
     22 C          62.3510   80.0842   13.3993 C.ar    1  UNL1        0.2013
     23 N          62.8088   81.1492   12.4474 N.ar    1  UNL1       -0.2083
     24 N          62.9916   80.5181   11.0989 N.ar    1  UNL1       -0.1487
     25 C          64.4173   91.6974   15.2433 C.3     1  UNL1        0.0721
     26 C          65.8740   92.0322   15.1169 C.ar    1  UNL1       -0.0162
     27 C          66.5822   92.7339   16.2377 C.ar    1  UNL1       -0.0039
     28 C          68.0389   93.0688   16.1114 C.ar    1  UNL1       -0.0003
     29 C          68.7874   92.7021   14.8643 C.ar    1  UNL1       -0.0000
     30 C          68.0792   92.0004   13.7435 C.ar    1  UNL1       -0.0003
     31 C          66.6224   91.6655   13.8698 C.ar    1  UNL1       -0.0039
@<TRIPOS>BOND
     1    19    20    1
     2    20    21   ar
     3    21    22   ar
     4    22    23   ar
     5    23     1    1
     6     1     2   ar
     7     2     3   ar
     8     3     4   ar
     9     4     5   ar
    10     5     6   ar
    11     5     7    1
    12     7     8   am
    13     8     9    2
    14     8    10    1
    15    10    11   ar
    16    11    12   ar
    17    12    13   ar
    18    13    25    1
    19    25    26    1
    20    26    27   ar
    21    27    28   ar
    22    28    29   ar
    23    29    30   ar
    24    30    31   ar
    25    13    14   ar
    26    14    15   ar
    27    15    16    1
    28    23    24   ar
    29    24    20   ar
    30     6     1   ar
    31    15    10   ar
    32    16     4    1
    33    31    26   ar
    34     7    17    1
    35    16    18    1
@<TRIPOS>MOLECULE
*****
 31 35 0 0 0
SMALL
GASTEIGER

@<TRIPOS>ATOM
      1 C          62.7474   83.7103   13.7395 C.ar    1  UNL1        0.0859
      2 C          63.7236   84.3111   14.7070 C.ar    1  UNL1        0.0206
      3 C          64.1421   85.7437   14.5578 C.ar    1  UNL1        0.0174
      4 C          63.5843   86.5757   13.4413 C.ar    1  UNL1        0.0631
      5 C          62.6080   85.9749   12.4738 C.ar    1  UNL1        0.0657
      6 C          62.1896   84.5422   12.6230 C.ar    1  UNL1        0.0351
      7 N          61.9364   86.6225   11.2993 N.am    1  UNL1       -0.2793
      8 C          62.0753   88.0309   10.8021 C.2     1  UNL1        0.2522
      9 O          61.2618   88.3764    9.5901 O.2     1  UNL1       -0.2697
     10 C          62.9199   89.1395   11.3567 C.ar    1  UNL1        0.0853
     11 C          62.7667   90.3984   10.5557 C.ar    1  UNL1        0.0086
     12 C          63.5280   91.6314   10.9434 C.ar    1  UNL1        0.0153
     13 C          64.4426   91.6054   12.1321 C.ar    1  UNL1        0.0648
     14 N          64.5957   90.3465   12.9331 N.ar    1  UNL1       -0.2344
     15 C          63.8344   89.1135   12.5454 C.ar    1  UNL1        0.1361
     16 N          64.1301   87.9725   13.4731 N.pl3   1  UNL1       -0.2969
     17 H          61.3235   86.0471   10.7870 H       1  UNL1        0.1552
     18 H          64.7665   88.1659   14.1989 H       1  UNL1        0.1536
     19 C          59.7865   79.3804   14.3449 C.3     1  UNL1        0.0756
     20 C          60.9679   80.2874   14.1669 C.ar    1  UNL1        0.1613
     21 N          62.4020   79.8583   14.0693 N.ar    1  UNL1       -0.2073
     22 C          63.2431   81.0883   13.8973 C.ar    1  UNL1        0.2013
     23 N          62.3289   82.2776   13.8887 N.ar    1  UNL1       -0.2083
     24 N          60.9228   81.7825   14.0553 N.ar    1  UNL1       -0.1487
     25 C          65.2039   92.8383   12.5198 C.3     1  UNL1        0.0721
     26 C          66.0188   93.5698   11.4948 C.ar    1  UNL1       -0.0162
     27 C          66.8546   92.8021   10.5139 C.ar    1  UNL1       -0.0039
     28 C          67.6697   93.5337    9.4889 C.ar    1  UNL1       -0.0003
     29 C          67.6489   95.0329    9.4448 C.ar    1  UNL1       -0.0000
     30 C          66.8132   95.8006   10.4257 C.ar    1  UNL1       -0.0003
     31 C          65.9981   95.0690   11.4507 C.ar    1  UNL1       -0.0039
@<TRIPOS>BOND
     1    19    20    1
     2    20    21   ar
     3    21    22   ar
     4    22    23   ar
     5    23     1    1
     6     1     2   ar
     7     2     3   ar
     8     3     4   ar
     9     4     5   ar
    10     5     6   ar
    11     5     7    1
    12     7     8   am
    13     8     9    2
    14     8    10    1
    15    10    11   ar
    16    11    12   ar
    17    12    13   ar
    18    13    25    1
    19    25    26    1
    20    26    27   ar
    21    27    28   ar
    22    28    29   ar
    23    29    30   ar
    24    30    31   ar
    25    13    14   ar
    26    14    15   ar
    27    15    16    1
    28    23    24   ar
    29    24    20   ar
    30     6     1   ar
    31    15    10   ar
    32    16     4    1
    33    31    26   ar
    34     7    17    1
    35    16    18    1
@<TRIPOS>MOLECULE
*****
 31 35 0 0 0
SMALL
GASTEIGER

@<TRIPOS>ATOM
      1 C          59.5109   89.9612    6.3621 C.ar    1  UNL1        0.0859
      2 C          58.1821   90.5450    5.9836 C.ar    1  UNL1        0.0206
      3 C          58.0815   91.4908    4.8237 C.ar    1  UNL1        0.0174
      4 C          59.3097   91.8528    4.0423 C.ar    1  UNL1        0.0631
      5 C          60.6385   91.2689    4.4208 C.ar    1  UNL1        0.0657
      6 C          60.7391   90.3232    5.5807 C.ar    1  UNL1        0.0351
      7 N          61.9759   91.4952    3.7806 N.am    1  UNL1       -0.2793
      8 C          62.3149   92.3612    2.6037 C.2     1  UNL1        0.2522
      9 O          63.7597   92.3755    2.2008 O.2     1  UNL1       -0.2697
     10 C          61.4001   93.2149    1.7764 C.ar    1  UNL1        0.0853
     11 C          62.1486   93.9241    0.6870 C.ar    1  UNL1        0.0086
     12 C          61.4174   94.8319   -0.2571 C.ar    1  UNL1        0.0153
     13 C          59.9377   95.0303   -0.1119 C.ar    1  UNL1        0.0648
     14 N          59.1892   94.3210    0.9775 N.ar    1  UNL1       -0.2344
     15 C          59.9204   93.4133    1.9216 C.ar    1  UNL1        0.1361
     16 N          58.9901   92.8071    2.9301 N.pl3   1  UNL1       -0.2969
     17 H          62.7312   91.0113    4.1865 H       1  UNL1        0.1552
     18 H          58.0447   93.0704    2.8516 H       1  UNL1        0.1536
     19 C          60.4384   87.9983   11.1754 C.3     1  UNL1        0.0756
     20 C          60.0379   88.1131    9.7344 C.ar    1  UNL1        0.1613
     21 N          59.4951   87.0067    8.8792 N.ar    1  UNL1       -0.2073
     22 C          59.2317   87.5643    7.5119 C.ar    1  UNL1        0.2013
     23 N          59.6116   89.0154    7.5220 N.ar    1  UNL1       -0.2083
     24 N          60.1099   89.3546    8.8955 N.ar    1  UNL1       -0.1487
     25 C          59.2064   95.9380   -1.0560 C.3     1  UNL1        0.0721
     26 C          57.7455   95.7251   -1.3208 C.ar    1  UNL1       -0.0162
     27 C          56.7768   96.8550   -1.1335 C.ar    1  UNL1       -0.0039
     28 C          55.3158   96.6422   -1.3983 C.ar    1  UNL1       -0.0003
     29 C          54.8233   95.2993   -1.8504 C.ar    1  UNL1       -0.0000
     30 C          55.7920   94.1694   -2.0376 C.ar    1  UNL1       -0.0003
     31 C          57.2530   94.3823   -1.7728 C.ar    1  UNL1       -0.0039
@<TRIPOS>BOND
     1    19    20    1
     2    20    21   ar
     3    21    22   ar
     4    22    23   ar
     5    23     1    1
     6     1     2   ar
     7     2     3   ar
     8     3     4   ar
     9     4     5   ar
    10     5     6   ar
    11     5     7    1
    12     7     8   am
    13     8     9    2
    14     8    10    1
    15    10    11   ar
    16    11    12   ar
    17    12    13   ar
    18    13    25    1
    19    25    26    1
    20    26    27   ar
    21    27    28   ar
    22    28    29   ar
    23    29    30   ar
    24    30    31   ar
    25    13    14   ar
    26    14    15   ar
    27    15    16    1
    28    23    24   ar
    29    24    20   ar
    30     6     1   ar
    31    15    10   ar
    32    16     4    1
    33    31    26   ar
    34     7    17    1
    35    16    18    1
@<TRIPOS>MOLECULE
*****
 31 35 0 0 0
SMALL
GASTEIGER

@<TRIPOS>ATOM
      1 C          62.4773   83.2806   13.7820 C.ar    1  UNL1        0.0859
      2 C          62.9731   83.8835   12.5011 C.ar    1  UNL1        0.0206
      3 C          63.4172   85.3159   12.4690 C.ar    1  UNL1        0.0174
      4 C          63.3654   86.1454   13.7177 C.ar    1  UNL1        0.0631
      5 C          62.8696   85.5424   14.9986 C.ar    1  UNL1        0.0657
      6 C          62.4255   84.1101   15.0307 C.ar    1  UNL1        0.0351
      7 N          62.7375   86.1874   16.3463 N.am    1  UNL1       -0.2793
      8 C          63.0687   87.5948   16.7461 C.2     1  UNL1        0.2522
      9 O          62.8223   87.9376   18.1854 O.2     1  UNL1       -0.2697
     10 C          63.6137   88.7046   15.8969 C.ar    1  UNL1        0.0853
     11 C          63.8025   89.9618   16.6931 C.ar    1  UNL1        0.0086
     12 C          64.3398   91.1956   16.0305 C.ar    1  UNL1        0.0153
     13 C          64.6883   91.1722   14.5716 C.ar    1  UNL1        0.0648
     14 N          64.4995   89.9151   13.7755 N.ar    1  UNL1       -0.2344
     15 C          63.9622   88.6813   14.4381 C.ar    1  UNL1        0.1361
     16 N          63.8517   87.5422   13.4683 N.pl3   1  UNL1       -0.2969
     17 H          62.3871   85.6109   17.0633 H       1  UNL1        0.1552
     18 H          64.1359   87.7373   12.5461 H       1  UNL1        0.1536
     19 C          59.5207   78.9528   14.4218 C.3     1  UNL1        0.0756
     20 C          60.6742   79.8589   14.1082 C.ar    1  UNL1        0.1613
     21 N          62.0255   79.4290   13.6190 N.ar    1  UNL1       -0.2073
     22 C          62.8653   80.6584   13.4373 C.ar    1  UNL1        0.2013
     23 N          62.0332   81.8482   13.8141 N.ar    1  UNL1       -0.2083
     24 N          60.6790   81.3540   14.2288 N.ar    1  UNL1       -0.1487
     25 C          65.2256   92.4060   13.9090 C.3     1  UNL1        0.0721
     26 C          66.2427   92.2863   12.8131 C.ar    1  UNL1       -0.0162
     27 C          67.6179   91.7715   13.1191 C.ar    1  UNL1       -0.0039
     28 C          68.6351   91.6518   12.0231 C.ar    1  UNL1       -0.0003
     29 C          68.2770   92.0470   10.6211 C.ar    1  UNL1       -0.0000
     30 C          66.9018   92.5619   10.3151 C.ar    1  UNL1       -0.0003
     31 C          65.8846   92.6815   11.4111 C.ar    1  UNL1       -0.0039
@<TRIPOS>BOND
     1    19    20    1
     2    20    21   ar
     3    21    22   ar
     4    22    23   ar
     5    23     1    1
     6     1     2   ar
     7     2     3   ar
     8     3     4   ar
     9     4     5   ar
    10     5     6   ar
    11     5     7    1
    12     7     8   am
    13     8     9    2
    14     8    10    1
    15    10    11   ar
    16    11    12   ar
    17    12    13   ar
    18    13    25    1
    19    25    26    1
    20    26    27   ar
    21    27    28   ar
    22    28    29   ar
    23    29    30   ar
    24    30    31   ar
    25    13    14   ar
    26    14    15   ar
    27    15    16    1
    28    23    24   ar
    29    24    20   ar
    30     6     1   ar
    31    15    10   ar
    32    16     4    1
    33    31    26   ar
    34     7    17    1
    35    16    18    1
