@<TRIPOS>MOLECULE
*****
 34 38 0 0 0
SMALL
GASTEIGER

@<TRIPOS>ATOM
      1 C          62.9880   90.9156   11.5146 C.3     1  UNL1        0.0749
      2 C          64.2675   91.6950   11.4398 C.3     1  UNL1        0.0444
      3 C          65.1478   91.8092   12.6489 C.ar    1  UNL1       -0.0101
      4 C          64.7487   91.1441   13.9327 C.ar    1  UNL1       -0.0091
      5 C          65.6291   91.2583   15.1419 C.ar    1  UNL1       -0.0032
      6 C          66.9086   92.0377   15.0671 C.ar    1  UNL1        0.0010
      7 C          67.3077   92.7028   13.7832 C.ar    1  UNL1        0.0142
      8 C          66.4273   92.5886   12.5741 C.ar    1  UNL1        0.0436
      9 C          63.4693   90.3647   14.0075 C.3     1  UNL1        0.0954
     10 N          62.5889   90.2505   12.7985 N.3     1  UNL1       -0.2934
     11 H          61.6802   90.6339   13.0586 H       1  UNL1        0.1236
     12 N          66.8264   93.2537   11.2902 N.pl3   1  UNL1       -0.3049
     13 C          66.4020   94.6655   11.0135 C.3     1  UNL1        0.1079
     14 C          66.8011   95.3307    9.7296 C.3     1  UNL1        0.0903
     15 N          67.6246   94.5839    8.7225 N.3     1  UNL1       -0.2946
     16 C          68.0490   93.1721    8.9993 C.3     1  UNL1        0.0903
     17 C          67.6499   92.5070   10.2832 C.3     1  UNL1        0.1079
     18 H          68.4774   95.1251    8.5799 H       1  UNL1        0.1233
     19 C          62.1076   90.8014   10.3055 C.3     1  UNL1        0.0886
     20 N          60.8297   90.0195   10.3794 N.3     1  UNL1       -0.2658
     21 C          60.7101   88.7083    9.6608 C.3     1  UNL1        0.0979
     22 C          59.9425   88.6252    8.3747 C.3     1  UNL1        0.0224
     23 C          59.8229   87.3140    7.6561 C.3     1  UNL1        0.0065
     24 C          60.4708   86.0859    8.2235 C.3     1  UNL1        0.0277
     25 C          61.2384   86.1690    9.5096 C.ar    1  UNL1       -0.0073
     26 C          61.8863   84.9409   10.0770 C.ar    1  UNL1       -0.0015
     27 C          62.6538   85.0240   11.3630 C.ar    1  UNL1        0.0203
     28 C          62.7735   86.3352   12.0817 C.ar    1  UNL1        0.0985
     29 N          62.1256   87.5633   11.5143 N.ar    1  UNL1       -0.2471
     30 C          61.3580   87.4802   10.2282 C.ar    1  UNL1        0.0695
     31 C          59.6714   90.5488   11.1720 C.3     1  UNL1        0.1045
     32 O          59.0708   88.3525   12.4231 O.3     1  UNL1       -0.3805
     33 C          59.2327   89.8437   12.4211 C.3     1  UNL1        0.1544
     34 H          58.7841   88.0596   13.3023 H       1  UNL1        0.2105
@<TRIPOS>BOND
     1    32    33    1
     2    33    31    1
     3    31    20    1
     4    20    19    1
     5     1    19    1
     6     1     2    1
     7     2     3    1
     8     3     4   ar
     9     4     5   ar
    10     5     6   ar
    11     6     7   ar
    12     7     8   ar
    13     8    12    1
    14    12    13    1
    15    13    14    1
    16    14    15    1
    17    15    16    1
    18    16    17    1
    19     4     9    1
    20     9    10    1
    21    21    20    1
    22    21    22    1
    23    22    23    1
    24    23    24    1
    25    24    25    1
    26    25    26   ar
    27    26    27   ar
    28    27    28   ar
    29    28    29   ar
    30    29    30   ar
    31    10     1    1
    32    30    21    1
    33     8     3   ar
    34    17    12    1
    35    30    25   ar
    36    32    34    1
    37    15    18    1
    38    10    11    1
@<TRIPOS>MOLECULE
*****
 34 38 0 0 0
SMALL
GASTEIGER

@<TRIPOS>ATOM
      1 C          61.2222   87.0928   10.3790 C.3     1  UNL1        0.0749
      2 C          61.9145   86.3591   11.4891 C.3     1  UNL1        0.0444
      3 C          62.8098   85.1971   11.1761 C.ar    1  UNL1       -0.0101
      4 C          63.0130   84.7688    9.7530 C.ar    1  UNL1       -0.0091
      5 C          63.9084   83.6067    9.4401 C.ar    1  UNL1       -0.0032
      6 C          64.6006   82.8730   10.5502 C.ar    1  UNL1        0.0010
      7 C          64.3975   83.3013   11.9733 C.ar    1  UNL1        0.0142
      8 C          63.5021   84.4633   12.2863 C.ar    1  UNL1        0.0436
      9 C          62.3207   85.5025    8.6429 C.3     1  UNL1        0.0954
     10 N          61.4254   86.6645    8.9559 N.3     1  UNL1       -0.2934
     11 H          60.5041   86.4351    8.5831 H       1  UNL1        0.1236
     12 N          63.2990   84.8916   13.7094 N.pl3   1  UNL1       -0.3049
     13 C          62.2830   84.1942   14.5648 C.3     1  UNL1        0.1079
     14 C          62.0799   84.6225   15.9880 C.3     1  UNL1        0.0903
     15 N          62.8927   85.7482   16.5557 N.3     1  UNL1       -0.2946
     16 C          63.9085   86.4455   15.7003 C.3     1  UNL1        0.0903
     17 C          64.1117   86.0172   14.2772 C.3     1  UNL1        0.1079
     18 H          63.3937   85.3727   17.3609 H       1  UNL1        0.1233
     19 C          60.3268   88.2549   10.6920 C.3     1  UNL1        0.0886
     20 N          60.7298   89.2519   11.7376 N.3     1  UNL1       -0.2658
     21 C          61.9682   90.0771   11.5495 C.3     1  UNL1        0.0979
     22 C          62.2873   90.6544   10.2023 C.3     1  UNL1        0.0224
     23 C          63.5257   91.4796   10.0141 C.3     1  UNL1        0.0065
     24 C          64.4451   91.7274   11.1731 C.3     1  UNL1        0.0277
     25 C          64.1261   91.1501   12.5203 C.ar    1  UNL1       -0.0073
     26 C          65.0454   91.3979   13.6793 C.ar    1  UNL1       -0.0015
     27 C          64.7264   90.8206   15.0264 C.ar    1  UNL1        0.0203
     28 C          63.4880   89.9955   15.2146 C.ar    1  UNL1        0.0985
     29 N          62.5686   89.7476   14.0557 N.ar    1  UNL1       -0.2471
     30 C          62.8876   90.3249   12.7085 C.ar    1  UNL1        0.0695
     31 C          59.8944   89.4238   12.9716 C.3     1  UNL1        0.1045
     32 O          57.9496   88.1747   14.1579 O.3     1  UNL1       -0.3805
     33 C          58.4708   88.9515   12.9853 C.3     1  UNL1        0.1544
     34 H          57.0185   87.9482   14.0075 H       1  UNL1        0.2105
@<TRIPOS>BOND
     1    32    33    1
     2    33    31    1
     3    31    20    1
     4    20    19    1
     5     1    19    1
     6     1     2    1
     7     2     3    1
     8     3     4   ar
     9     4     5   ar
    10     5     6   ar
    11     6     7   ar
    12     7     8   ar
    13     8    12    1
    14    12    13    1
    15    13    14    1
    16    14    15    1
    17    15    16    1
    18    16    17    1
    19     4     9    1
    20     9    10    1
    21    21    20    1
    22    21    22    1
    23    22    23    1
    24    23    24    1
    25    24    25    1
    26    25    26   ar
    27    26    27   ar
    28    27    28   ar
    29    28    29   ar
    30    29    30   ar
    31    10     1    1
    32    30    21    1
    33     8     3   ar
    34    17    12    1
    35    30    25   ar
    36    32    34    1
    37    15    18    1
    38    10    11    1
@<TRIPOS>MOLECULE
*****
 34 38 0 0 0
SMALL
GASTEIGER

@<TRIPOS>ATOM
      1 C          64.2863   86.4849   14.5761 C.3     1  UNL1        0.0749
      2 C          63.6786   85.8950   13.3381 C.3     1  UNL1        0.0444
      3 C          63.2553   84.4561   13.3228 C.ar    1  UNL1       -0.0101
      4 C          63.4396   83.6071   14.5456 C.ar    1  UNL1       -0.0091
      5 C          63.0162   82.1681   14.5303 C.ar    1  UNL1       -0.0032
      6 C          62.4085   81.5783   13.2923 C.ar    1  UNL1        0.0010
      7 C          62.2242   82.4273   12.0695 C.ar    1  UNL1        0.0142
      8 C          62.6476   83.8662   12.0847 C.ar    1  UNL1        0.0436
      9 C          64.0472   84.1970   15.7836 C.3     1  UNL1        0.0954
     10 N          64.4706   85.6359   15.7989 N.3     1  UNL1       -0.2934
     11 H          65.4667   85.6474   16.0180 H       1  UNL1        0.1236
     12 N          62.4633   84.7152   10.8620 N.pl3   1  UNL1       -0.3049
     13 C          63.3111   84.4757    9.6478 C.3     1  UNL1        0.1079
     14 C          63.1268   85.3247    8.4251 C.3     1  UNL1        0.0903
     15 N          62.0947   86.4133    8.4164 N.3     1  UNL1       -0.2946
     16 C          61.2470   86.6527    9.6305 C.3     1  UNL1        0.0903
     17 C          61.4313   85.8037   10.8533 C.3     1  UNL1        0.1079
     18 H          61.4566   86.2079    7.6476 H       1  UNL1        0.1233
     19 C          64.7096   87.9239   14.5914 C.3     1  UNL1        0.0886
     20 N          63.6903   89.0077   14.4007 N.3     1  UNL1       -0.2658
     21 C          63.5876   89.7172   13.0832 C.3     1  UNL1        0.0979
     22 C          62.6643   89.1974   12.0214 C.3     1  UNL1        0.0224
     23 C          62.5615   89.9070   10.7038 C.3     1  UNL1        0.0065
     24 C          63.3820   91.1364   10.4481 C.3     1  UNL1        0.0277
     25 C          64.3053   91.6562   11.5099 C.ar    1  UNL1       -0.0073
     26 C          65.1258   92.8856   11.2541 C.ar    1  UNL1       -0.0015
     27 C          66.0490   93.4054   12.3159 C.ar    1  UNL1        0.0203
     28 C          66.1518   92.6958   13.6334 C.ar    1  UNL1        0.0985
     29 N          65.3313   91.4664   13.8892 N.ar    1  UNL1       -0.2471
     30 C          64.4081   90.9467   12.8274 C.ar    1  UNL1        0.0695
     31 C          62.7737   89.3819   15.5276 C.3     1  UNL1        0.1045
     32 O          63.5627   91.6836   16.4383 O.3     1  UNL1       -0.3805
     33 C          63.2814   90.2268   16.6583 C.3     1  UNL1        0.1544
     34 H          63.8817   92.0796   17.2643 H       1  UNL1        0.2105
@<TRIPOS>BOND
     1    32    33    1
     2    33    31    1
     3    31    20    1
     4    20    19    1
     5     1    19    1
     6     1     2    1
     7     2     3    1
     8     3     4   ar
     9     4     5   ar
    10     5     6   ar
    11     6     7   ar
    12     7     8   ar
    13     8    12    1
    14    12    13    1
    15    13    14    1
    16    14    15    1
    17    15    16    1
    18    16    17    1
    19     4     9    1
    20     9    10    1
    21    21    20    1
    22    21    22    1
    23    22    23    1
    24    23    24    1
    25    24    25    1
    26    25    26   ar
    27    26    27   ar
    28    27    28   ar
    29    28    29   ar
    30    29    30   ar
    31    10     1    1
    32    30    21    1
    33     8     3   ar
    34    17    12    1
    35    30    25   ar
    36    32    34    1
    37    15    18    1
    38    10    11    1
@<TRIPOS>MOLECULE
*****
 34 38 0 0 0
SMALL
GASTEIGER

@<TRIPOS>ATOM
      1 C          63.1470   89.9745   11.7081 C.3     1  UNL1        0.0749
      2 C          64.1987   91.0431   11.6641 C.3     1  UNL1        0.0444
      3 C          64.8167   91.5400   12.9373 C.ar    1  UNL1       -0.0101
      4 C          64.3830   90.9683   14.2545 C.ar    1  UNL1       -0.0091
      5 C          65.0011   91.4653   15.5278 C.ar    1  UNL1       -0.0032
      6 C          66.0528   92.5339   15.4838 C.ar    1  UNL1        0.0010
      7 C          66.4865   93.1056   14.1665 C.ar    1  UNL1        0.0142
      8 C          65.8684   92.6087   12.8933 C.ar    1  UNL1        0.0436
      9 C          63.3313   89.8997   14.2986 C.3     1  UNL1        0.0954
     10 N          62.7133   89.4028   13.0254 N.3     1  UNL1       -0.2934
     11 H          61.7095   89.5672   13.1015 H       1  UNL1        0.1236
     12 N          66.3021   93.1804   11.5761 N.pl3   1  UNL1       -0.3049
     13 C          65.7658   94.5051   11.1204 C.3     1  UNL1        0.1079
     14 C          66.1995   95.0768    9.8032 C.3     1  UNL1        0.0903
     15 N          67.1695   94.3238    8.9416 N.3     1  UNL1       -0.2946
     16 C          67.7058   92.9991    9.3974 C.3     1  UNL1        0.0903
     17 C          67.2721   92.4274   10.7146 C.3     1  UNL1        0.1079
     18 H          67.9742   94.9346    8.8011 H       1  UNL1        0.1233
     19 C          62.5289   89.4776   10.4349 C.3     1  UNL1        0.0886
     20 N          61.6378   88.2711   10.4547 N.3     1  UNL1       -0.2658
     21 C          62.1712   86.9375   10.0224 C.3     1  UNL1        0.0979
     22 C          62.1370   86.5499    8.5737 C.3     1  UNL1        0.0224
     23 C          62.6704   85.2163    8.1414 C.3     1  UNL1        0.0065
     24 C          63.2381   84.2703    9.1576 C.3     1  UNL1        0.0277
     25 C          63.2723   84.6579   10.6063 C.ar    1  UNL1       -0.0073
     26 C          63.8400   83.7119   11.6225 C.ar    1  UNL1       -0.0015
     27 C          63.8742   84.0995   13.0712 C.ar    1  UNL1        0.0203
     28 C          63.3408   85.4331   13.5035 C.ar    1  UNL1        0.0985
     29 N          62.7731   86.3791   12.4873 N.ar    1  UNL1       -0.2471
     30 C          62.7389   85.9915   11.0387 C.ar    1  UNL1        0.0695
     31 C          60.2132   88.3983   10.9070 C.3     1  UNL1        0.1045
     32 O          59.8931   89.6676   13.1511 O.3     1  UNL1       -0.3805
     33 C          59.7705   89.6196   11.6569 C.3     1  UNL1        0.1544
     34 H          59.5647   90.5209   13.4751 H       1  UNL1        0.2105
@<TRIPOS>BOND
     1    32    33    1
     2    33    31    1
     3    31    20    1
     4    20    19    1
     5     1    19    1
     6     1     2    1
     7     2     3    1
     8     3     4   ar
     9     4     5   ar
    10     5     6   ar
    11     6     7   ar
    12     7     8   ar
    13     8    12    1
    14    12    13    1
    15    13    14    1
    16    14    15    1
    17    15    16    1
    18    16    17    1
    19     4     9    1
    20     9    10    1
    21    21    20    1
    22    21    22    1
    23    22    23    1
    24    23    24    1
    25    24    25    1
    26    25    26   ar
    27    26    27   ar
    28    27    28   ar
    29    28    29   ar
    30    29    30   ar
    31    10     1    1
    32    30    21    1
    33     8     3   ar
    34    17    12    1
    35    30    25   ar
    36    32    34    1
    37    15    18    1
    38    10    11    1
@<TRIPOS>MOLECULE
*****
 34 38 0 0 0
SMALL
GASTEIGER

@<TRIPOS>ATOM
      1 C          63.1875   90.9581   12.3217 C.3     1  UNL1        0.0749
      2 C          64.4553   91.7133   12.0529 C.3     1  UNL1        0.0444
      3 C          65.4153   91.9897   13.1718 C.ar    1  UNL1       -0.0101
      4 C          65.1074   91.5108   14.5596 C.ar    1  UNL1       -0.0091
      5 C          66.0675   91.7872   15.6785 C.ar    1  UNL1       -0.0032
      6 C          67.3353   92.5424   15.4097 C.ar    1  UNL1        0.0010
      7 C          67.6431   93.0213   14.0219 C.ar    1  UNL1        0.0142
      8 C          66.6831   92.7449   12.9030 C.ar    1  UNL1        0.0436
      9 C          63.8397   90.7555   14.8284 C.3     1  UNL1        0.0954
     10 N          62.8797   90.4792   13.7095 N.3     1  UNL1       -0.2934
     11 H          61.9890   90.8993   13.9751 H       1  UNL1        0.1236
     12 N          66.9909   93.2238   11.5152 N.pl3   1  UNL1       -0.3049
     13 C          67.7791   92.3556   10.5798 C.3     1  UNL1        0.1079
     14 C          68.0870   92.8345    9.1920 C.3     1  UNL1        0.0903
     15 N          67.6066   94.1816    8.7397 N.3     1  UNL1       -0.2946
     16 C          66.8184   95.0498    9.6751 C.3     1  UNL1        0.0903
     17 C          66.5106   94.5709   11.0628 C.3     1  UNL1        0.1079
     18 H          67.0210   94.0252    7.9193 H       1  UNL1        0.1233
     19 C          62.2275   90.6817   11.2027 C.3     1  UNL1        0.0886
     20 N          61.1514   89.6510   11.3751 N.3     1  UNL1       -0.2658
     21 C          61.3684   88.2507   10.8834 C.3     1  UNL1        0.0979
     22 C          62.2341   87.3071   11.6646 C.3     1  UNL1        0.0224
     23 C          62.4512   85.9068   11.1728 C.3     1  UNL1        0.0065
     24 C          61.8025   85.4499    9.8998 C.3     1  UNL1        0.0277
     25 C          60.9368   86.3934    9.1186 C.ar    1  UNL1       -0.0073
     26 C          60.2881   85.9366    7.8456 C.ar    1  UNL1       -0.0015
     27 C          59.4224   86.8801    7.0644 C.ar    1  UNL1        0.0203
     28 C          59.2054   88.2805    7.5562 C.ar    1  UNL1        0.0985
     29 N          59.8541   88.7373    8.8291 N.ar    1  UNL1       -0.2471
     30 C          60.7197   87.7938    9.6103 C.ar    1  UNL1        0.0695
     31 C          59.8582   90.0207   12.0393 C.3     1  UNL1        0.1045
     32 O          58.6159   88.4810   13.7232 O.3     1  UNL1       -0.3805
     33 C          58.8304   88.9649   12.3197 C.3     1  UNL1        0.1544
     34 H          57.9216   87.8037   13.7291 H       1  UNL1        0.2105
@<TRIPOS>BOND
     1    32    33    1
     2    33    31    1
     3    31    20    1
     4    20    19    1
     5     1    19    1
     6     1     2    1
     7     2     3    1
     8     3     4   ar
     9     4     5   ar
    10     5     6   ar
    11     6     7   ar
    12     7     8   ar
    13     8    12    1
    14    12    13    1
    15    13    14    1
    16    14    15    1
    17    15    16    1
    18    16    17    1
    19     4     9    1
    20     9    10    1
    21    21    20    1
    22    21    22    1
    23    22    23    1
    24    23    24    1
    25    24    25    1
    26    25    26   ar
    27    26    27   ar
    28    27    28   ar
    29    28    29   ar
    30    29    30   ar
    31    10     1    1
    32    30    21    1
    33     8     3   ar
    34    17    12    1
    35    30    25   ar
    36    32    34    1
    37    15    18    1
    38    10    11    1
@<TRIPOS>MOLECULE
*****
 34 38 0 0 0
SMALL
GASTEIGER

@<TRIPOS>ATOM
      1 C          63.2684   89.0067   12.7915 C.3     1  UNL1        0.0749
      2 C          63.1159   87.6762   12.1159 C.3     1  UNL1        0.0444
      3 C          62.0555   87.4819   11.0729 C.ar    1  UNL1       -0.0101
      4 C          61.1477   88.6181   10.7056 C.ar    1  UNL1       -0.0091
      5 C          60.0873   88.4237    9.6626 C.ar    1  UNL1       -0.0032
      6 C          59.9348   87.0932    8.9870 C.ar    1  UNL1        0.0010
      7 C          60.8426   85.9571    9.3543 C.ar    1  UNL1        0.0142
      8 C          61.9030   86.1514   10.3973 C.ar    1  UNL1        0.0436
      9 C          61.3002   89.9485   11.3812 C.3     1  UNL1        0.0954
     10 N          62.3606   90.1429   12.4242 N.3     1  UNL1       -0.2934
     11 H          61.8835   90.4270   13.2798 H       1  UNL1        0.1236
     12 N          62.8108   85.0152   10.7646 N.pl3   1  UNL1       -0.3049
     13 C          63.0215   84.6596   12.2066 C.3     1  UNL1        0.1079
     14 C          63.9293   83.5234   12.5739 C.3     1  UNL1        0.0903
     15 N          64.6265   82.7429   11.4993 N.3     1  UNL1       -0.2946
     16 C          64.4159   83.0985   10.0574 C.3     1  UNL1        0.0903
     17 C          63.5080   84.2347    9.6900 C.3     1  UNL1        0.1079
     18 H          64.3386   81.7704   11.6078 H       1  UNL1        0.1233
     19 C          64.3288   89.2011   13.8346 C.3     1  UNL1        0.0886
     20 N          64.2415   90.3568   14.7866 N.3     1  UNL1       -0.2658
     21 C          65.2051   91.5003   14.6686 C.3     1  UNL1        0.0979
     22 C          65.9881   91.9480   15.8671 C.3     1  UNL1        0.0224
     23 C          66.9518   93.0914   15.7490 C.3     1  UNL1        0.0065
     24 C          67.1323   93.7872   14.4325 C.3     1  UNL1        0.0277
     25 C          66.3493   93.3396   13.2340 C.ar    1  UNL1       -0.0073
     26 C          66.5298   94.0353   11.9175 C.ar    1  UNL1       -0.0015
     27 C          65.7468   93.5877   10.7190 C.ar    1  UNL1        0.0203
     28 C          64.7831   92.4442   10.8370 C.ar    1  UNL1        0.0985
     29 N          64.6026   91.7484   12.1535 N.ar    1  UNL1       -0.2471
     30 C          65.3856   92.1961   13.3520 C.ar    1  UNL1        0.0695
     31 C          63.1904   90.3692   15.8568 C.3     1  UNL1        0.1045
     32 O          62.8166   87.8736   16.4746 O.3     1  UNL1       -0.3805
     33 C          63.1531   89.2768   16.8840 C.3     1  UNL1        0.1544
     34 H          62.8362   87.2960   17.2536 H       1  UNL1        0.2105
@<TRIPOS>BOND
     1    32    33    1
     2    33    31    1
     3    31    20    1
     4    20    19    1
     5     1    19    1
     6     1     2    1
     7     2     3    1
     8     3     4   ar
     9     4     5   ar
    10     5     6   ar
    11     6     7   ar
    12     7     8   ar
    13     8    12    1
    14    12    13    1
    15    13    14    1
    16    14    15    1
    17    15    16    1
    18    16    17    1
    19     4     9    1
    20     9    10    1
    21    21    20    1
    22    21    22    1
    23    22    23    1
    24    23    24    1
    25    24    25    1
    26    25    26   ar
    27    26    27   ar
    28    27    28   ar
    29    28    29   ar
    30    29    30   ar
    31    10     1    1
    32    30    21    1
    33     8     3   ar
    34    17    12    1
    35    30    25   ar
    36    32    34    1
    37    15    18    1
    38    10    11    1
@<TRIPOS>MOLECULE
*****
 34 38 0 0 0
SMALL
GASTEIGER

@<TRIPOS>ATOM
      1 C          64.2876   86.0361   14.7272 C.3     1  UNL1        0.0749
      2 C          63.7470   85.4283   13.4670 C.3     1  UNL1        0.0444
      3 C          63.1190   84.0665   13.5006 C.ar    1  UNL1       -0.0101
      4 C          63.0315   83.3126   14.7944 C.ar    1  UNL1       -0.0091
      5 C          62.4034   81.9508   14.8279 C.ar    1  UNL1       -0.0032
      6 C          61.8628   81.3430   13.5677 C.ar    1  UNL1        0.0010
      7 C          61.9503   82.0969   12.2739 C.ar    1  UNL1        0.0142
      8 C          62.5784   83.4586   12.2403 C.ar    1  UNL1        0.0436
      9 C          63.5720   83.9205   16.0547 C.3     1  UNL1        0.0954
     10 N          64.2001   85.2822   16.0211 N.3     1  UNL1       -0.2934
     11 H          65.1545   85.1748   16.3644 H       1  UNL1        0.1236
     12 N          62.6659   84.2125   10.9465 N.pl3   1  UNL1       -0.3049
     13 C          61.7881   85.4064   10.7132 C.3     1  UNL1        0.1079
     14 C          61.8756   86.1603    9.4194 C.3     1  UNL1        0.0903
     15 N          62.8408   85.7203    8.3588 N.3     1  UNL1       -0.2946
     16 C          63.7185   84.5265    8.5920 C.3     1  UNL1        0.0903
     17 C          63.6310   83.7726    9.8859 C.3     1  UNL1        0.1079
     18 H          63.4602   86.5103    8.1783 H       1  UNL1        0.1233
     19 C          64.9157   87.3979   14.6937 C.3     1  UNL1        0.0886
     20 N          64.0545   88.6233   14.7757 N.3     1  UNL1       -0.2658
     21 C          64.2872   89.7680   13.8347 C.3     1  UNL1        0.0979
     22 C          65.3515   90.7813   14.1351 C.3     1  UNL1        0.0224
     23 C          65.5843   91.9260   13.1941 C.3     1  UNL1        0.0065
     24 C          64.7528   92.0573   11.9526 C.3     1  UNL1        0.0277
     25 C          63.6884   91.0439   11.6521 C.ar    1  UNL1       -0.0073
     26 C          62.8569   91.1752   10.4107 C.ar    1  UNL1       -0.0015
     27 C          61.7926   90.1619   10.1102 C.ar    1  UNL1        0.0203
     28 C          61.5598   89.0172   11.0513 C.ar    1  UNL1        0.0985
     29 N          62.3913   88.8859   12.2927 N.ar    1  UNL1       -0.2471
     30 C          63.4556   89.8992   12.5931 C.ar    1  UNL1        0.0695
     31 C          62.9604   88.7040   15.7988 C.3     1  UNL1        0.1045
     32 O          63.2511   91.0922   16.7795 O.3     1  UNL1       -0.3805
     33 C          63.1064   89.6131   16.9829 C.3     1  UNL1        0.1544
     34 H          63.3342   91.5304   17.6409 H       1  UNL1        0.2105
@<TRIPOS>BOND
     1    32    33    1
     2    33    31    1
     3    31    20    1
     4    20    19    1
     5     1    19    1
     6     1     2    1
     7     2     3    1
     8     3     4   ar
     9     4     5   ar
    10     5     6   ar
    11     6     7   ar
    12     7     8   ar
    13     8    12    1
    14    12    13    1
    15    13    14    1
    16    14    15    1
    17    15    16    1
    18    16    17    1
    19     4     9    1
    20     9    10    1
    21    21    20    1
    22    21    22    1
    23    22    23    1
    24    23    24    1
    25    24    25    1
    26    25    26   ar
    27    26    27   ar
    28    27    28   ar
    29    28    29   ar
    30    29    30   ar
    31    10     1    1
    32    30    21    1
    33     8     3   ar
    34    17    12    1
    35    30    25   ar
    36    32    34    1
    37    15    18    1
    38    10    11    1
@<TRIPOS>MOLECULE
*****
 34 38 0 0 0
SMALL
GASTEIGER

@<TRIPOS>ATOM
      1 C          62.2514   87.4709   10.4526 C.3     1  UNL1        0.0749
      2 C          62.5990   86.5739   11.6035 C.3     1  UNL1        0.0444
      3 C          63.0266   85.1589   11.3489 C.ar    1  UNL1       -0.0101
      4 C          63.1066   84.6409    9.9434 C.ar    1  UNL1       -0.0091
      5 C          63.5343   83.2258    9.6888 C.ar    1  UNL1       -0.0032
      6 C          63.8818   82.3288   10.8397 C.ar    1  UNL1        0.0010
      7 C          63.8018   82.8467   12.2451 C.ar    1  UNL1        0.0142
      8 C          63.3742   84.2617   12.4997 C.ar    1  UNL1        0.0436
      9 C          62.7591   85.5379    8.7926 C.3     1  UNL1        0.0954
     10 N          62.3315   86.9529    9.0472 N.3     1  UNL1       -0.2934
     11 H          61.4013   87.0569    8.6416 H       1  UNL1        0.1236
     12 N          63.2942   84.7797   13.9052 N.pl3   1  UNL1       -0.3049
     13 C          62.1704   84.3489   14.8004 C.3     1  UNL1        0.1079
     14 C          62.0903   84.8669   16.2059 C.3     1  UNL1        0.0903
     15 N          63.1342   85.8157   16.7161 N.3     1  UNL1       -0.2946
     16 C          64.2580   86.2465   15.8208 C.3     1  UNL1        0.0903
     17 C          64.3380   85.7285   14.4154 C.3     1  UNL1        0.1079
     18 H          63.5598   85.3746   17.5314 H       1  UNL1        0.1233
     19 C          61.8238   88.8860   10.7072 C.3     1  UNL1        0.0886
     20 N          61.6271   89.3685   12.1137 N.3     1  UNL1       -0.2658
     21 C          62.7994   89.8643   12.9074 C.3     1  UNL1        0.0979
     22 C          63.0259   89.3635   14.3031 C.3     1  UNL1        0.0224
     23 C          64.1982   89.8592   15.0968 C.3     1  UNL1        0.0065
     24 C          65.1440   90.8557   14.4948 C.3     1  UNL1        0.0277
     25 C          64.9176   91.3565   13.0991 C.ar    1  UNL1       -0.0073
     26 C          65.8634   92.3530   12.4972 C.ar    1  UNL1       -0.0015
     27 C          65.6369   92.8537   11.1015 C.ar    1  UNL1        0.0203
     28 C          64.4646   92.3580   10.3078 C.ar    1  UNL1        0.0985
     29 N          63.5188   91.3615   10.9098 N.ar    1  UNL1       -0.2471
     30 C          63.7453   90.8608   12.3054 C.ar    1  UNL1        0.0695
     31 C          60.2581   89.3554   12.7267 C.3     1  UNL1        0.1045
     32 O          58.9737   91.2915   11.5642 O.3     1  UNL1       -0.3805
     33 C          59.0787   89.8428   11.9384 C.3     1  UNL1        0.1544
     34 H          58.1577   91.4370   11.0603 H       1  UNL1        0.2105
@<TRIPOS>BOND
     1    32    33    1
     2    33    31    1
     3    31    20    1
     4    20    19    1
     5     1    19    1
     6     1     2    1
     7     2     3    1
     8     3     4   ar
     9     4     5   ar
    10     5     6   ar
    11     6     7   ar
    12     7     8   ar
    13     8    12    1
    14    12    13    1
    15    13    14    1
    16    14    15    1
    17    15    16    1
    18    16    17    1
    19     4     9    1
    20     9    10    1
    21    21    20    1
    22    21    22    1
    23    22    23    1
    24    23    24    1
    25    24    25    1
    26    25    26   ar
    27    26    27   ar
    28    27    28   ar
    29    28    29   ar
    30    29    30   ar
    31    10     1    1
    32    30    21    1
    33     8     3   ar
    34    17    12    1
    35    30    25   ar
    36    32    34    1
    37    15    18    1
    38    10    11    1
@<TRIPOS>MOLECULE
*****
 34 38 0 0 0
SMALL
GASTEIGER

@<TRIPOS>ATOM
      1 C          61.4636   89.5356   11.7284 C.3     1  UNL1        0.0749
      2 C          61.7238   88.1428   11.2361 C.3     1  UNL1        0.0444
      3 C          61.0948   87.6689    9.9595 C.ar    1  UNL1       -0.0101
      4 C          60.2057   88.5878    9.1752 C.ar    1  UNL1       -0.0091
      5 C          59.5768   88.1138    7.8985 C.ar    1  UNL1       -0.0032
      6 C          59.8370   86.7210    7.4062 C.ar    1  UNL1        0.0010
      7 C          60.7261   85.8021    8.1905 C.ar    1  UNL1        0.0142
      8 C          61.3550   86.2760    9.4671 C.ar    1  UNL1        0.0436
      9 C          59.9455   89.9805    9.6675 C.3     1  UNL1        0.0954
     10 N          60.5745   90.4544   10.9441 N.3     1  UNL1       -0.2934
     11 H          59.8120   90.7269   11.5645 H       1  UNL1        0.1236
     12 N          62.2441   85.3572   10.2514 N.pl3   1  UNL1       -0.3049
     13 C          63.2452   84.4951    9.5409 C.3     1  UNL1        0.1079
     14 C          64.1343   83.5762   10.3253 C.3     1  UNL1        0.0903
     15 N          64.0224   83.5194   11.8200 N.3     1  UNL1       -0.2946
     16 C          63.0213   84.3815   12.5304 C.3     1  UNL1        0.0903
     17 C          62.1322   85.3003   11.7461 C.3     1  UNL1        0.1079
     18 H          64.9394   83.7642   12.1935 H       1  UNL1        0.1233
     19 C          62.0925   90.0095   13.0051 C.3     1  UNL1        0.0886
     20 N          63.5852   90.0052   13.1526 N.3     1  UNL1       -0.2658
     21 C          64.3928   91.1610   12.6409 C.3     1  UNL1        0.0979
     22 C          64.3057   91.5556   11.1964 C.3     1  UNL1        0.0224
     23 C          65.1133   92.7114   10.6846 C.3     1  UNL1        0.0065
     24 C          66.0080   93.4727   11.6174 C.3     1  UNL1        0.0277
     25 C          66.0950   93.0781   13.0620 C.ar    1  UNL1       -0.0073
     26 C          66.9897   93.8393   13.9948 C.ar    1  UNL1       -0.0015
     27 C          67.0767   93.4447   15.4393 C.ar    1  UNL1        0.0203
     28 C          66.2691   92.2889   15.9510 C.ar    1  UNL1        0.0985
     29 N          65.3745   91.5277   15.0183 N.ar    1  UNL1       -0.2471
     30 C          65.2874   91.9223   13.5737 C.ar    1  UNL1        0.0695
     31 C          64.2704   88.8450   13.8119 C.3     1  UNL1        0.1045
     32 O          63.4325   89.4791   16.1879 O.3     1  UNL1       -0.3805
     33 C          63.8887   88.4417   15.2053 C.3     1  UNL1        0.1544
     34 H          63.2261   89.0537   17.0348 H       1  UNL1        0.2105
@<TRIPOS>BOND
     1    32    33    1
     2    33    31    1
     3    31    20    1
     4    20    19    1
     5     1    19    1
     6     1     2    1
     7     2     3    1
     8     3     4   ar
     9     4     5   ar
    10     5     6   ar
    11     6     7   ar
    12     7     8   ar
    13     8    12    1
    14    12    13    1
    15    13    14    1
    16    14    15    1
    17    15    16    1
    18    16    17    1
    19     4     9    1
    20     9    10    1
    21    21    20    1
    22    21    22    1
    23    22    23    1
    24    23    24    1
    25    24    25    1
    26    25    26   ar
    27    26    27   ar
    28    27    28   ar
    29    28    29   ar
    30    29    30   ar
    31    10     1    1
    32    30    21    1
    33     8     3   ar
    34    17    12    1
    35    30    25   ar
    36    32    34    1
    37    15    18    1
    38    10    11    1
