@<TRIPOS>MOLECULE
*****
 38 40 0 0 0
SMALL
GASTEIGER

@<TRIPOS>ATOM
      1 C          60.5910   88.3047    9.3595 C.ar    1  UNL1        0.0085
      2 C          59.8493   89.2820    8.4965 C.ar    1  UNL1       -0.0057
      3 C          59.5114   88.9252    7.0792 C.ar    1  UNL1       -0.0220
      4 C          58.7697   89.9026    6.2163 C.3     1  UNL1        0.0310
      5 C          59.9153   87.5912    6.5250 C.ar    1  UNL1       -0.0030
      6 C          60.6570   86.6140    7.3880 C.ar    1  UNL1        0.0139
      7 C          60.9948   86.9707    8.8052 C.ar    1  UNL1        0.0454
      8 N          61.7366   85.9934    9.6682 N.pl3   1  UNL1       -0.3043
      9 C          61.4148   85.8884   11.1295 C.3     1  UNL1        0.1123
     10 C          62.1564   84.9111   11.9925 C.3     1  UNL1        0.1148
     11 N          63.2200   84.0387   11.3942 N.am    1  UNL1       -0.2760
     12 C          63.9617   83.0615   12.2571 C.2     1  UNL1        0.2256
     13 O          65.0252   82.1892   11.6588 O.2     1  UNL1       -0.2749
     14 C          63.5418   84.1437    9.9329 C.3     1  UNL1        0.1148
     15 C          62.8001   85.1211    9.0699 C.3     1  UNL1        0.1123
     16 C          63.6399   82.9565   13.7184 C.3     1  UNL1        0.0811
     17 C          62.4510   82.1607   14.1693 C.3     1  UNL1        0.0099
     18 C          64.5069   83.6473   14.7289 C.3     1  UNL1        0.0377
     19 C          64.1575   85.0286   15.1977 C.ar    1  UNL1        0.0058
     20 C          64.8223   86.2217   14.5773 C.ar    1  UNL1       -0.0012
     21 C          64.4730   87.6031   15.0461 C.ar    1  UNL1        0.0112
     22 C          63.4588   87.7914   16.1352 C.ar    1  UNL1        0.0599
     23 CL         63.1094   89.1728   16.6040 Cl      1  UNL1       -0.0822
     24 C          62.7940   86.5984   16.7555 C.ar    1  UNL1        0.0407
     25 C          63.1434   85.2170   16.2867 C.ar    1  UNL1        0.1370
     26 F          62.4787   84.0240   16.9070 F       1  UNL1       -0.2045
     27 C          60.9289   88.6615   10.7767 C.3     1  UNL1        0.0952
     28 C          58.9198   89.1890   12.3372 C.2     1  UNL1        0.2388
     29 O          58.7505   90.5212   11.6690 O.2     1  UNL1       -0.2736
     30 N          60.0090   88.2592   11.8911 N.am    1  UNL1       -0.3010
     31 H          60.1201   87.3848   12.3297 H       1  UNL1        0.1497
     32 C          57.9999   88.7866   13.4517 C.3     1  UNL1        0.1549
     33 C          55.9236   87.2428   13.6870 C.3     1  UNL1        0.0862
     34 N          56.5559   88.4990   13.1653 N.3     1  UNL1       -0.2887
     35 H          56.0193   89.2786   13.5456 H       1  UNL1        0.1237
     36 C          62.1866   89.4206   11.0796 C.3     1  UNL1        0.0223
     37 C          63.0338   89.0303   12.2543 C.3     1  UNL1        0.0020
     38 C          62.5973   90.5701   10.2077 C.3     1  UNL1        0.0020
@<TRIPOS>BOND
     1    33    34    1
     2    34    32    1
     3    32    28    1
     4    28    29    2
     5    28    30   am
     6    27    30    1
     7    27     1    1
     8     1     2   ar
     9     2     3   ar
    10     3     4    1
    11     3     5   ar
    12     5     6   ar
    13     6     7   ar
    14     7     8    1
    15     8     9    1
    16     9    10    1
    17    10    11    1
    18    11    12   am
    19    12    13    2
    20    12    16    1
    21    16    17    1
    22    16    18    1
    23    18    19    1
    24    19    20   ar
    25    20    21   ar
    26    21    22   ar
    27    22    23    1
    28    22    24   ar
    29    24    25   ar
    30    25    26    1
    31    11    14    1
    32    14    15    1
    33    27    36    1
    34    36    37    1
    35    36    38    1
    36     7     1   ar
    37    15     8    1
    38    25    19   ar
    39    34    35    1
    40    30    31    1
@<TRIPOS>MOLECULE
*****
 38 40 0 0 0
SMALL
GASTEIGER

@<TRIPOS>ATOM
      1 C          60.8619   88.6822    9.1830 C.ar    1  UNL1        0.0085
      2 C          60.1096   89.5971    8.2627 C.ar    1  UNL1       -0.0057
      3 C          59.3459   89.0315    7.1022 C.ar    1  UNL1       -0.0220
      4 C          58.5935   89.9464    6.1819 C.3     1  UNL1        0.0310
      5 C          59.3345   87.5509    6.8620 C.ar    1  UNL1       -0.0030
      6 C          60.0869   86.6360    7.7822 C.ar    1  UNL1        0.0139
      7 C          60.8506   87.2017    8.9427 C.ar    1  UNL1        0.0454
      8 N          61.6029   86.2867    9.8630 N.pl3   1  UNL1       -0.3043
      9 C          61.2767   86.2613   11.3269 C.3     1  UNL1        0.1123
     10 C          62.0290   85.3463   12.2472 C.3     1  UNL1        0.1148
     11 N          63.1076   84.4568   11.7036 N.am    1  UNL1       -0.2760
     12 C          63.8599   83.5419   12.6238 C.2     1  UNL1        0.2256
     13 O          64.9384   82.6524   12.0802 O.2     1  UNL1       -0.2749
     14 C          63.4338   84.4822   10.2397 C.3     1  UNL1        0.1148
     15 C          62.6815   85.3972    9.3194 C.3     1  UNL1        0.1123
     16 C          63.5336   83.5165   14.0877 C.3     1  UNL1        0.0811
     17 C          62.3328   82.7615   14.5755 C.3     1  UNL1        0.0099
     18 C          64.4082   84.2460   15.0638 C.3     1  UNL1        0.0377
     19 C          64.1103   85.6732   15.4166 C.ar    1  UNL1        0.0058
     20 C          64.6784   86.7854   14.5857 C.ar    1  UNL1       -0.0012
     21 C          64.3805   88.2126   14.9385 C.ar    1  UNL1        0.0112
     22 C          63.5145   88.5275   16.1222 C.ar    1  UNL1        0.0599
     23 CL         63.2166   89.9547   16.4750 Cl      1  UNL1       -0.0822
     24 C          62.9464   87.4153   16.9529 C.ar    1  UNL1        0.0407
     25 C          63.2443   85.9881   16.6002 C.ar    1  UNL1        0.1370
     26 F          62.6763   84.8759   17.4309 F       1  UNL1       -0.2045
     27 C          61.6256   89.2479   10.3435 C.3     1  UNL1        0.0952
     28 C          63.4017   91.1256   10.6082 C.2     1  UNL1        0.2388
     29 O          62.3770   92.0022   11.2650 O.2     1  UNL1       -0.2736
     30 N          63.0260   89.7484   10.1474 N.am    1  UNL1       -0.3010
     31 H          63.6985   89.1730    9.7163 H       1  UNL1        0.1497
     32 C          64.8021   91.6260   10.4121 C.3     1  UNL1        0.1549
     33 C          66.1260   93.7142   11.2102 C.3     1  UNL1        0.0862
     34 N          65.0686   93.1005   10.3412 N.3     1  UNL1       -0.2887
     35 H          65.3243   93.3074    9.3757 H       1  UNL1        0.1237
     36 C          60.9890   89.3131   11.7001 C.3     1  UNL1        0.0223
     37 C          59.4944   89.3247   11.8274 C.3     1  UNL1        0.0020
     38 C          61.8469   89.3666   12.9294 C.3     1  UNL1        0.0020
@<TRIPOS>BOND
     1    33    34    1
     2    34    32    1
     3    32    28    1
     4    28    29    2
     5    28    30   am
     6    27    30    1
     7    27     1    1
     8     1     2   ar
     9     2     3   ar
    10     3     4    1
    11     3     5   ar
    12     5     6   ar
    13     6     7   ar
    14     7     8    1
    15     8     9    1
    16     9    10    1
    17    10    11    1
    18    11    12   am
    19    12    13    2
    20    12    16    1
    21    16    17    1
    22    16    18    1
    23    18    19    1
    24    19    20   ar
    25    20    21   ar
    26    21    22   ar
    27    22    23    1
    28    22    24   ar
    29    24    25   ar
    30    25    26    1
    31    11    14    1
    32    14    15    1
    33    27    36    1
    34    36    37    1
    35    36    38    1
    36     7     1   ar
    37    15     8    1
    38    25    19   ar
    39    34    35    1
    40    30    31    1
@<TRIPOS>MOLECULE
*****
 38 40 0 0 0
SMALL
GASTEIGER

@<TRIPOS>ATOM
      1 C          61.0274   88.6412    9.0354 C.ar    1  UNL1        0.0085
      2 C          60.2776   89.6890    8.2674 C.ar    1  UNL1       -0.0057
      3 C          59.3563   89.2873    7.1539 C.ar    1  UNL1       -0.0220
      4 C          58.6065   90.3351    6.3858 C.3     1  UNL1        0.0310
      5 C          59.1848   87.8377    6.8084 C.ar    1  UNL1       -0.0030
      6 C          59.9346   86.7899    7.5764 C.ar    1  UNL1        0.0139
      7 C          60.8559   87.1917    8.6899 C.ar    1  UNL1        0.0454
      8 N          61.6057   86.1438    9.4580 N.pl3   1  UNL1       -0.3043
      9 C          61.1133   85.7054   10.8053 C.3     1  UNL1        0.1123
     10 C          61.8630   84.6576   11.5733 C.3     1  UNL1        0.1148
     11 N          63.1053   84.0482   10.9941 N.am    1  UNL1       -0.2760
     12 C          63.8550   83.0004   11.7621 C.2     1  UNL1        0.2256
     13 O          65.0972   82.3910   11.1828 O.2     1  UNL1       -0.2749
     14 C          63.5977   84.4866    9.6467 C.3     1  UNL1        0.1148
     15 C          62.8479   85.5345    8.8787 C.3     1  UNL1        0.1123
     16 C          63.3626   82.5619   13.1094 C.3     1  UNL1        0.0811
     17 C          62.0997   81.7605   13.2220 C.3     1  UNL1        0.0099
     18 C          64.1331   82.9249   14.3441 C.3     1  UNL1        0.0377
     19 C          63.8428   84.2117   15.0581 C.ar    1  UNL1        0.0058
     20 C          62.6380   84.3221   15.9450 C.ar    1  UNL1       -0.0012
     21 C          62.3478   85.6090   16.6590 C.ar    1  UNL1        0.0112
     22 C          63.2623   86.7854   16.4861 C.ar    1  UNL1        0.0599
     23 CL         62.9720   88.0722   17.2001 Cl      1  UNL1       -0.0822
     24 C          64.4670   86.6749   15.5993 C.ar    1  UNL1        0.0407
     25 C          64.7573   85.3881   14.8853 C.ar    1  UNL1        0.1370
     26 F          65.9619   85.2776   13.9985 F       1  UNL1       -0.2045
     27 C          61.9486   89.0430   10.1489 C.3     1  UNL1        0.0952
     28 C          63.4084   91.1033   10.7608 C.2     1  UNL1        0.2388
     29 O          62.5204   91.3832   11.9367 O.2     1  UNL1       -0.2736
     30 N          63.1225   89.9332    9.8668 N.am    1  UNL1       -0.3010
     31 H          63.7054   89.7494    9.0950 H       1  UNL1        0.1497
     32 C          64.5823   91.9934   10.4786 C.3     1  UNL1        0.1549
     33 C          66.3877   92.7727   12.1766 C.3     1  UNL1        0.0862
     34 N          65.0534   92.9657   11.5192 N.3     1  UNL1       -0.2887
     35 H          65.0736   93.8843   11.0762 H       1  UNL1        0.1237
     36 C          61.6960   88.5546   11.5444 C.3     1  UNL1        0.0223
     37 C          62.8217   87.9824   12.3541 C.3     1  UNL1        0.0020
     38 C          60.3177   88.6384   12.1304 C.3     1  UNL1        0.0020
@<TRIPOS>BOND
     1    33    34    1
     2    34    32    1
     3    32    28    1
     4    28    29    2
     5    28    30   am
     6    27    30    1
     7    27     1    1
     8     1     2   ar
     9     2     3   ar
    10     3     4    1
    11     3     5   ar
    12     5     6   ar
    13     6     7   ar
    14     7     8    1
    15     8     9    1
    16     9    10    1
    17    10    11    1
    18    11    12   am
    19    12    13    2
    20    12    16    1
    21    16    17    1
    22    16    18    1
    23    18    19    1
    24    19    20   ar
    25    20    21   ar
    26    21    22   ar
    27    22    23    1
    28    22    24   ar
    29    24    25   ar
    30    25    26    1
    31    11    14    1
    32    14    15    1
    33    27    36    1
    34    36    37    1
    35    36    38    1
    36     7     1   ar
    37    15     8    1
    38    25    19   ar
    39    34    35    1
    40    30    31    1
@<TRIPOS>MOLECULE
*****
 38 40 0 0 0
SMALL
GASTEIGER

@<TRIPOS>ATOM
      1 C          62.6026   84.2632   12.0578 C.ar    1  UNL1        0.0085
      2 C          62.2866   82.7974   12.0952 C.ar    1  UNL1       -0.0057
      3 C          62.3947   82.0395   13.3851 C.ar    1  UNL1       -0.0220
      4 C          62.0787   80.5736   13.4224 C.3     1  UNL1        0.0310
      5 C          62.8187   82.7474   14.6377 C.ar    1  UNL1       -0.0030
      6 C          63.1346   84.2132   14.6003 C.ar    1  UNL1        0.0139
      7 C          63.0266   84.9712   13.3104 C.ar    1  UNL1        0.0454
      8 N          63.3426   86.4371   13.2731 N.pl3   1  UNL1       -0.3043
      9 C          64.2316   87.0395   14.3204 C.3     1  UNL1        0.1123
     10 C          64.5476   88.5053   14.2832 C.3     1  UNL1        0.1148
     11 N          63.9746   89.3688   13.1986 N.am    1  UNL1       -0.2760
     12 C          64.2907   90.8346   13.1614 C.2     1  UNL1        0.2256
     13 O          63.7177   91.6980   12.0768 O.2     1  UNL1       -0.2749
     14 C          63.0857   88.7664   12.1513 C.3     1  UNL1        0.1148
     15 C          62.7697   87.3005   12.1886 C.3     1  UNL1        0.1123
     16 C          65.1796   91.4371   14.2087 C.3     1  UNL1        0.0811
     17 C          64.6886   91.5770   15.6191 C.3     1  UNL1        0.0099
     18 C          66.5595   91.8996   13.8456 C.3     1  UNL1        0.0377
     19 C          66.8056   92.5567   12.5198 C.ar    1  UNL1        0.0058
     20 C          65.9597   93.7186   12.0900 C.ar    1  UNL1       -0.0012
     21 C          66.2058   94.3757   10.7643 C.ar    1  UNL1        0.0112
     22 C          67.2979   93.8709    9.8683 C.ar    1  UNL1        0.0599
     23 CL         67.5441   94.5280    8.5426 Cl      1  UNL1       -0.0822
     24 C          68.1438   92.7092   10.2981 C.ar    1  UNL1        0.0407
     25 C          67.8976   92.0521   11.6239 C.ar    1  UNL1        0.1370
     26 F          68.7435   90.8903   12.0537 F       1  UNL1       -0.2045
     27 C          62.4946   85.0212   10.7679 C.3     1  UNL1        0.0952
     28 C          60.6610   86.2865    9.4312 C.2     1  UNL1        0.2388
     29 O          60.7568   85.2673    8.3349 O.2     1  UNL1       -0.2736
     30 N          61.5299   86.1634   10.6477 N.am    1  UNL1       -0.3010
     31 H          61.4669   86.8324   11.3673 H       1  UNL1        0.1497
     32 C          59.6962   87.4288    9.3110 C.3     1  UNL1        0.1549
     33 C          60.1377   89.8419   10.1666 C.3     1  UNL1        0.0862
     34 N          60.2060   88.8190    9.0716 N.3     1  UNL1       -0.2887
     35 H          61.1884   88.7316    8.8112 H       1  UNL1        0.1237
     36 C          63.3513   84.6368    9.5982 C.3     1  UNL1        0.0223
     37 C          63.4140   85.5245    8.3907 C.3     1  UNL1        0.0020
     38 C          64.1454   83.3647    9.6359 C.3     1  UNL1        0.0020
@<TRIPOS>BOND
     1    33    34    1
     2    34    32    1
     3    32    28    1
     4    28    29    2
     5    28    30   am
     6    27    30    1
     7    27     1    1
     8     1     2   ar
     9     2     3   ar
    10     3     4    1
    11     3     5   ar
    12     5     6   ar
    13     6     7   ar
    14     7     8    1
    15     8     9    1
    16     9    10    1
    17    10    11    1
    18    11    12   am
    19    12    13    2
    20    12    16    1
    21    16    17    1
    22    16    18    1
    23    18    19    1
    24    19    20   ar
    25    20    21   ar
    26    21    22   ar
    27    22    23    1
    28    22    24   ar
    29    24    25   ar
    30    25    26    1
    31    11    14    1
    32    14    15    1
    33    27    36    1
    34    36    37    1
    35    36    38    1
    36     7     1   ar
    37    15     8    1
    38    25    19   ar
    39    34    35    1
    40    30    31    1
@<TRIPOS>MOLECULE
*****
 38 40 0 0 0
SMALL
GASTEIGER

@<TRIPOS>ATOM
      1 C          61.5385   87.3156   10.4024 C.ar    1  UNL1        0.0085
      2 C          60.6773   86.6011    9.4035 C.ar    1  UNL1       -0.0057
      3 C          59.7802   87.3838    8.4910 C.ar    1  UNL1       -0.0220
      4 C          58.9189   86.6693    7.4921 C.3     1  UNL1        0.0310
      5 C          59.7442   88.8808    8.5775 C.ar    1  UNL1       -0.0030
      6 C          60.6054   89.5952    9.5764 C.ar    1  UNL1        0.0139
      7 C          61.5026   88.8126   10.4889 C.ar    1  UNL1        0.0454
      8 N          62.3638   89.5271   11.4879 N.pl3   1  UNL1       -0.3043
      9 C          63.6135   90.2241   11.0380 C.3     1  UNL1        0.1123
     10 C          64.4747   90.9386   12.0369 C.3     1  UNL1        0.1148
     11 N          64.0863   90.9561   13.4857 N.am    1  UNL1       -0.2760
     12 C          64.9475   91.6706   14.4846 C.2     1  UNL1        0.2256
     13 O          64.5589   91.6880   15.9332 O.2     1  UNL1       -0.2749
     14 C          62.8365   90.2591   13.9355 C.3     1  UNL1        0.1148
     15 C          61.9753   89.5446   12.9365 C.3     1  UNL1        0.1123
     16 C          66.1972   92.3676   14.0347 C.3     1  UNL1        0.0811
     17 C          67.5221   91.6719   14.1368 C.3     1  UNL1        0.0099
     18 C          66.1220   93.7603   13.4829 C.3     1  UNL1        0.0377
     19 C          66.4639   94.0169   12.0451 C.ar    1  UNL1        0.0058
     20 C          66.8883   92.8818   11.1611 C.ar    1  UNL1       -0.0012
     21 C          67.2302   93.1383    9.7233 C.ar    1  UNL1        0.0112
     22 C          67.1479   94.5300    9.1696 C.ar    1  UNL1        0.0599
     23 CL         67.4899   94.7865    7.7318 Cl      1  UNL1       -0.0822
     24 C          66.7236   95.6650   10.0536 C.ar    1  UNL1        0.0407
     25 C          66.3816   95.4085   11.4914 C.ar    1  UNL1        0.1370
     26 F          65.9573   96.5435   12.3755 F       1  UNL1       -0.2045
     27 C          62.4357   86.5329   11.3149 C.3     1  UNL1        0.0952
     28 C          63.8294   86.3845   13.5025 C.2     1  UNL1        0.2388
     29 O          63.9738   84.9039   13.3101 O.2     1  UNL1       -0.2736
     30 N          63.0604   87.1990   12.5049 N.am    1  UNL1       -0.3010
     31 H          62.9656   88.1707   12.6312 H       1  UNL1        0.1497
     32 C          64.4541   87.0506   14.6925 C.3     1  UNL1        0.1549
     33 C          63.2432   86.1628   16.8128 C.3     1  UNL1        0.0862
     34 N          63.6368   87.3054   15.9242 N.3     1  UNL1       -0.2887
     35 H          64.1688   87.9572   16.5010 H       1  UNL1        0.1237
     36 C          62.7082   85.0843   11.0374 C.3     1  UNL1        0.0223
     37 C          62.1856   84.0310   11.9687 C.3     1  UNL1        0.0020
     38 C          63.5033   84.6889    9.8284 C.3     1  UNL1        0.0020
@<TRIPOS>BOND
     1    33    34    1
     2    34    32    1
     3    32    28    1
     4    28    29    2
     5    28    30   am
     6    27    30    1
     7    27     1    1
     8     1     2   ar
     9     2     3   ar
    10     3     4    1
    11     3     5   ar
    12     5     6   ar
    13     6     7   ar
    14     7     8    1
    15     8     9    1
    16     9    10    1
    17    10    11    1
    18    11    12   am
    19    12    13    2
    20    12    16    1
    21    16    17    1
    22    16    18    1
    23    18    19    1
    24    19    20   ar
    25    20    21   ar
    26    21    22   ar
    27    22    23    1
    28    22    24   ar
    29    24    25   ar
    30    25    26    1
    31    11    14    1
    32    14    15    1
    33    27    36    1
    34    36    37    1
    35    36    38    1
    36     7     1   ar
    37    15     8    1
    38    25    19   ar
    39    34    35    1
    40    30    31    1
@<TRIPOS>MOLECULE
*****
 38 40 0 0 0
SMALL
GASTEIGER

@<TRIPOS>ATOM
      1 C          62.6986   84.0760   12.3881 C.ar    1  UNL1        0.0085
      2 C          62.4146   82.6184   12.1772 C.ar    1  UNL1       -0.0057
      3 C          62.5825   81.6499   13.3103 C.ar    1  UNL1       -0.0220
      4 C          62.2984   80.1922   13.0993 C.3     1  UNL1        0.0310
      5 C          63.0344   82.1391   14.6543 C.ar    1  UNL1       -0.0030
      6 C          63.3184   83.5968   14.8652 C.ar    1  UNL1        0.0139
      7 C          63.1505   84.5652   13.7321 C.ar    1  UNL1        0.0454
      8 N          63.4345   86.0230   13.9431 N.pl3   1  UNL1       -0.3043
      9 C          63.5793   86.9373   12.7628 C.3     1  UNL1        0.1123
     10 C          63.8633   88.3950   12.9738 C.3     1  UNL1        0.1148
     11 N          64.0025   88.9383   14.3650 N.am    1  UNL1       -0.2760
     12 C          64.2865   90.3960   14.5759 C.2     1  UNL1        0.2256
     13 O          64.4258   90.9393   15.9671 O.2     1  UNL1       -0.2749
     14 C          63.8578   88.0240   15.5452 C.3     1  UNL1        0.1148
     15 C          63.5737   86.5662   15.3342 C.3     1  UNL1        0.1123
     16 C          64.4313   91.3104   13.3957 C.3     1  UNL1        0.0811
     17 C          63.4782   91.2031   12.2425 C.3     1  UNL1        0.0099
     18 C          65.5292   92.3320   13.3686 C.3     1  UNL1        0.0377
     19 C          66.2317   92.6441   12.0806 C.ar    1  UNL1        0.0058
     20 C          65.5726   93.5254   11.0612 C.ar    1  UNL1       -0.0012
     21 C          66.2751   93.8375    9.7732 C.ar    1  UNL1        0.0112
     22 C          67.6367   93.2684    9.5045 C.ar    1  UNL1        0.0599
     23 CL         68.3392   93.5805    8.2164 Cl      1  UNL1       -0.0822
     24 C          68.2958   92.3872   10.5238 C.ar    1  UNL1        0.0407
     25 C          67.5933   92.0751   11.8118 C.ar    1  UNL1        0.1370
     26 F          68.2524   91.1939   12.8312 F       1  UNL1       -0.2045
     27 C          62.5307   85.0445   11.2550 C.3     1  UNL1        0.0952
     28 C          60.6797   86.6299   10.3548 C.2     1  UNL1        0.2388
     29 O          60.5679   85.7948    9.1139 O.2     1  UNL1       -0.2736
     30 N          61.6611   86.2548   11.4254 N.am    1  UNL1       -0.3010
     31 H          61.7346   86.8029   12.2399 H       1  UNL1        0.1497
     32 C          59.8102   87.8403   10.5253 C.3     1  UNL1        0.1549
     33 C          59.7774   89.8700   12.1468 C.3     1  UNL1        0.0862
     34 N          59.5719   88.4058   11.8940 N.3     1  UNL1       -0.2887
     35 H          58.6022   88.1990   12.1334 H       1  UNL1        0.1237
     36 C          63.2323   84.8027    9.9515 C.3     1  UNL1        0.0223
     37 C          63.2149   85.8560    8.8837 C.3     1  UNL1        0.0020
     38 C          63.9514   83.5075    9.7157 C.3     1  UNL1        0.0020
@<TRIPOS>BOND
     1    33    34    1
     2    34    32    1
     3    32    28    1
     4    28    29    2
     5    28    30   am
     6    27    30    1
     7    27     1    1
     8     1     2   ar
     9     2     3   ar
    10     3     4    1
    11     3     5   ar
    12     5     6   ar
    13     6     7   ar
    14     7     8    1
    15     8     9    1
    16     9    10    1
    17    10    11    1
    18    11    12   am
    19    12    13    2
    20    12    16    1
    21    16    17    1
    22    16    18    1
    23    18    19    1
    24    19    20   ar
    25    20    21   ar
    26    21    22   ar
    27    22    23    1
    28    22    24   ar
    29    24    25   ar
    30    25    26    1
    31    11    14    1
    32    14    15    1
    33    27    36    1
    34    36    37    1
    35    36    38    1
    36     7     1   ar
    37    15     8    1
    38    25    19   ar
    39    34    35    1
    40    30    31    1
