@<TRIPOS>MOLECULE
*****
 36 40 0 0 0
SMALL
GASTEIGER

@<TRIPOS>ATOM
      1 C          64.3790   83.6754   14.6470 C.3     1  UNL1        0.0731
      2 N          64.0873   85.0564   15.1546 N.3     1  UNL1       -0.2712
      3 C          63.4855   85.3977   16.4856 C.3     1  UNL1        0.0738
      4 C          63.3725   86.8908   16.5739 C.3     1  UNL1        0.0372
      5 C          62.9307   88.0245   17.4511 C.3     1  UNL1        0.0245
      6 C          63.1895   89.3068   16.7169 C.3     1  UNL1        0.0909
      7 N          63.7914   88.9654   15.3859 N.pl3   1  UNL1       -0.3077
      8 C          63.9044   87.4723   15.2976 C.3     1  UNL1        0.0901
      9 C          64.3462   86.3385   14.4204 C.3     1  UNL1        0.0921
     10 C          64.2071   89.9452   14.3290 C.ar    1  UNL1        0.0478
     11 C          63.4293   90.0440   13.0502 C.ar    1  UNL1        0.0145
     12 C          63.8450   91.0238   11.9933 C.ar    1  UNL1        0.0051
     13 C          65.0386   91.9047   12.2150 C.ar    1  UNL1        0.0715
     14 C          65.8165   91.8059   13.4938 C.ar    1  UNL1        0.0051
     15 C          65.4008   90.8262   14.5508 C.ar    1  UNL1        0.0145
     16 C          65.4544   92.8845   11.1580 C.3     1  UNL1        0.4186
     17 F          65.8701   93.8643   10.1011 F       1  UNL1       -0.1659
     18 F          66.5189   93.4174   12.0707 F       1  UNL1       -0.1659
     19 F          64.3899   92.3516   10.2454 F       1  UNL1       -0.1659
     20 C          63.2506   82.7485   14.3039 C.3     1  UNL1        0.0294
     21 C          62.9733   82.4027   12.8709 C.3     1  UNL1        0.0666
     22 S          63.9427   82.8079   11.8004 S.3     1  UNL1       -0.0756
     23 C          62.0559   85.4335   12.2429 C.3     1  UNL1        0.1340
     24 N          62.6567   84.9886   10.9425 N.ar    1  UNL1       -0.2884
     25 C          63.5239   83.7817   10.7391 C.ar    1  UNL1        0.1932
     26 N          63.8990   83.7196    9.2881 N.ar    1  UNL1       -0.1221
     27 N          63.2635   84.8880    8.5946 N.ar    1  UNL1       -0.1282
     28 C          62.4957   85.6724    9.6171 C.ar    1  UNL1        0.1670
     29 C          61.7057   86.9212    9.3594 C.ar    1  UNL1        0.0422
     30 C          62.1314   88.2192    9.9789 C.ar    1  UNL1        0.0217
     31 C          61.3414   89.4680    9.7212 C.ar    1  UNL1        0.0748
     32 N          60.1256   89.4186    8.8440 N.ar    1  UNL1       -0.3199
     33 C          59.6999   88.1206    8.2245 C.ar    1  UNL1        0.2578
     34 O          58.4841   88.0714    7.3473 O.2     1  UNL1       -0.2672
     35 C          60.4900   86.8718    8.4822 C.ar    1  UNL1        0.0636
     36 H          59.6071   90.2382    8.6748 H       1  UNL1        0.1690
@<TRIPOS>BOND
     1    23    24    1
     2    24    25   ar
     3    25    22    1
     4    22    21    1
     5    21    20    1
     6    20     1    1
     7     1     2    1
     8     2     3    1
     9     3     4    1
    10     4     5    1
    11     5     6    1
    12     6     7    1
    13     7    10    1
    14    10    11   ar
    15    11    12   ar
    16    12    13   ar
    17    13    16    1
    18    16    17    1
    19    16    18    1
    20    16    19    1
    21    13    14   ar
    22    14    15   ar
    23     7     8    1
    24     8     9    1
    25    25    26   ar
    26    26    27   ar
    27    27    28   ar
    28    28    29    1
    29    29    30   ar
    30    30    31   ar
    31    31    32   ar
    32    32    33   ar
    33    33    34    2
    34    33    35   ar
    35    28    24   ar
    36    35    29   ar
    37     9     2    1
    38     8     4    1
    39    15    10   ar
    40    32    36    1
@<TRIPOS>MOLECULE
*****
 36 40 0 0 0
SMALL
GASTEIGER

@<TRIPOS>ATOM
      1 C          63.9321   85.2086   16.2675 C.3     1  UNL1        0.0731
      2 N          63.8863   84.7109   14.8532 N.3     1  UNL1       -0.2712
      3 C          64.5878   83.4956   14.3231 C.3     1  UNL1        0.0738
      4 C          64.2661   83.3747   12.8631 C.3     1  UNL1        0.0372
      5 C          64.5008   82.5489   11.6330 C.3     1  UNL1        0.0245
      6 C          63.7455   83.1791   10.5005 C.3     1  UNL1        0.0909
      7 N          63.0439   84.3944   11.0307 N.pl3   1  UNL1       -0.3077
      8 C          63.3657   84.5153   12.4908 C.3     1  UNL1        0.0901
      9 C          63.1310   85.3410   13.7208 C.3     1  UNL1        0.0921
     10 C          62.1735   85.3253   10.2397 C.ar    1  UNL1        0.0478
     11 C          62.1635   85.2514    8.7415 C.ar    1  UNL1        0.0145
     12 C          61.2930   86.1823    7.9505 C.ar    1  UNL1        0.0051
     13 C          60.4326   87.1871    8.6575 C.ar    1  UNL1        0.0715
     14 C          60.4426   87.2610   10.1557 C.ar    1  UNL1        0.0051
     15 C          61.3130   86.3301   10.9468 C.ar    1  UNL1        0.0145
     16 C          59.5622   88.1179    7.8665 C.3     1  UNL1        0.4186
     17 F          58.6917   89.0488    7.0754 F       1  UNL1       -0.1659
     18 F          58.6680   86.9706    7.5002 F       1  UNL1       -0.1659
     19 F          60.4563   89.2653    8.2327 F       1  UNL1       -0.1659
     20 C          62.7900   86.0105   16.8177 C.3     1  UNL1        0.0294
     21 C          63.0301   87.3948   17.3434 C.3     1  UNL1        0.0666
     22 S          62.3766   88.5719   16.6822 S.3     1  UNL1       -0.0756
     23 C          64.2474   88.6502   14.0094 C.3     1  UNL1        0.1340
     24 N          64.0693   89.7677   14.9941 N.ar    1  UNL1       -0.2884
     25 C          63.2094   89.7317   16.2226 C.ar    1  UNL1        0.1932
     26 N          63.3285   91.0592   16.9108 N.ar    1  UNL1       -0.1221
     27 N          64.2621   91.9156   16.1077 N.ar    1  UNL1       -0.1282
     28 C          64.7200   91.1174   14.9230 C.ar    1  UNL1        0.1670
     29 C          65.6629   91.5866   13.8549 C.ar    1  UNL1        0.0422
     30 C          65.1241   92.1384   12.5684 C.ar    1  UNL1        0.0217
     31 C          66.0670   92.6076   11.5003 C.ar    1  UNL1        0.0748
     32 N          67.5487   92.5249   11.7188 N.ar    1  UNL1       -0.3199
     33 C          68.0875   91.9731   13.0054 C.ar    1  UNL1        0.2578
     34 O          69.5692   91.8905   13.2238 O.2     1  UNL1       -0.2672
     35 C          67.1445   91.5040   14.0734 C.ar    1  UNL1        0.0636
     36 H          68.1676   92.8329   11.0178 H       1  UNL1        0.1690
@<TRIPOS>BOND
     1    23    24    1
     2    24    25   ar
     3    25    22    1
     4    22    21    1
     5    21    20    1
     6    20     1    1
     7     1     2    1
     8     2     3    1
     9     3     4    1
    10     4     5    1
    11     5     6    1
    12     6     7    1
    13     7    10    1
    14    10    11   ar
    15    11    12   ar
    16    12    13   ar
    17    13    16    1
    18    16    17    1
    19    16    18    1
    20    16    19    1
    21    13    14   ar
    22    14    15   ar
    23     7     8    1
    24     8     9    1
    25    25    26   ar
    26    26    27   ar
    27    27    28   ar
    28    28    29    1
    29    29    30   ar
    30    30    31   ar
    31    31    32   ar
    32    32    33   ar
    33    33    34    2
    34    33    35   ar
    35    28    24   ar
    36    35    29   ar
    37     9     2    1
    38     8     4    1
    39    15    10   ar
    40    32    36    1
@<TRIPOS>MOLECULE
*****
 36 40 0 0 0
SMALL
GASTEIGER

@<TRIPOS>ATOM
      1 C          60.9376   86.4443    8.0965 C.3     1  UNL1        0.0731
      2 N          61.8281   85.6898    9.0387 N.3     1  UNL1       -0.2712
      3 C          62.7403   84.5567    8.6729 C.3     1  UNL1        0.0738
      4 C          63.4388   84.1027    9.9203 C.3     1  UNL1        0.0372
      5 C          64.4342   83.1217   10.4651 C.3     1  UNL1        0.0245
      6 C          64.5689   83.3679   11.9387 C.3     1  UNL1        0.0909
      7 N          63.6566   84.5011   12.3045 N.pl3   1  UNL1       -0.3077
      8 C          62.9582   84.9552   11.0571 C.3     1  UNL1        0.0901
      9 C          61.9627   85.9361   10.5122 C.3     1  UNL1        0.0921
     10 C          63.4747   85.0788   13.6768 C.ar    1  UNL1        0.0478
     11 C          64.0765   86.4103   14.0159 C.ar    1  UNL1        0.0145
     12 C          63.8946   86.9879   15.3882 C.ar    1  UNL1        0.0051
     13 C          63.1110   86.2341   16.4214 C.ar    1  UNL1        0.0715
     14 C          62.5092   84.9025   16.0824 C.ar    1  UNL1        0.0051
     15 C          62.6911   84.3249   14.7101 C.ar    1  UNL1        0.0145
     16 C          62.9291   86.8117   17.7937 C.3     1  UNL1        0.4186
     17 F          62.7472   87.3894   19.1660 F       1  UNL1       -0.1659
     18 F          63.4249   88.1388   17.3008 F       1  UNL1       -0.1659
     19 F          62.4333   85.4846   18.2866 F       1  UNL1       -0.1659
     20 C          60.1233   87.6001    8.5975 C.3     1  UNL1        0.0294
     21 C          60.7919   88.9020    8.9265 C.3     1  UNL1        0.0666
     22 S          60.3481   89.6921   10.1217 S.3     1  UNL1       -0.0756
     23 C          63.1733   91.3218   10.0135 C.3     1  UNL1        0.1340
     24 N          62.5865   90.6538   11.2216 N.ar    1  UNL1       -0.2884
     25 C          61.2878   89.9047   11.2713 C.ar    1  UNL1        0.1932
     26 N          61.0939   89.4055   12.6725 N.ar    1  UNL1       -0.1221
     27 N          62.2728   89.8461   13.4887 N.ar    1  UNL1       -0.1282
     28 C          63.1952   90.6175   12.5921 C.ar    1  UNL1        0.1670
     29 C          64.4977   91.2430   12.9951 C.ar    1  UNL1        0.0422
     30 C          65.1926   90.7893   14.2447 C.ar    1  UNL1        0.0217
     31 C          66.4951   91.4148   14.6477 C.ar    1  UNL1        0.0748
     32 N          67.1026   92.4938   13.8011 N.ar    1  UNL1       -0.3199
     33 C          66.4077   92.9474   12.5516 C.ar    1  UNL1        0.2578
     34 O          67.0153   94.0265   11.7051 O.2     1  UNL1       -0.2672
     35 C          65.1052   92.3220   12.1486 C.ar    1  UNL1        0.0636
     36 H          67.9574   92.9043   14.0656 H       1  UNL1        0.1690
@<TRIPOS>BOND
     1    23    24    1
     2    24    25   ar
     3    25    22    1
     4    22    21    1
     5    21    20    1
     6    20     1    1
     7     1     2    1
     8     2     3    1
     9     3     4    1
    10     4     5    1
    11     5     6    1
    12     6     7    1
    13     7    10    1
    14    10    11   ar
    15    11    12   ar
    16    12    13   ar
    17    13    16    1
    18    16    17    1
    19    16    18    1
    20    16    19    1
    21    13    14   ar
    22    14    15   ar
    23     7     8    1
    24     8     9    1
    25    25    26   ar
    26    26    27   ar
    27    27    28   ar
    28    28    29    1
    29    29    30   ar
    30    30    31   ar
    31    31    32   ar
    32    32    33   ar
    33    33    34    2
    34    33    35   ar
    35    28    24   ar
    36    35    29   ar
    37     9     2    1
    38     8     4    1
    39    15    10   ar
    40    32    36    1
@<TRIPOS>MOLECULE
*****
 36 40 0 0 0
SMALL
GASTEIGER

@<TRIPOS>ATOM
      1 C          64.0572   87.1839   16.2841 C.3     1  UNL1        0.0731
      2 N          63.9022   86.3197   15.0679 N.3     1  UNL1       -0.2712
      3 C          64.4815   84.9488   14.8807 C.3     1  UNL1        0.0738
      4 C          64.0780   84.4565   13.5225 C.3     1  UNL1        0.0372
      5 C          64.1867   83.3050   12.5674 C.3     1  UNL1        0.0245
      6 C          63.4251   83.6600   11.3248 C.3     1  UNL1        0.0909
      7 N          62.8457   85.0309   11.5120 N.pl3   1  UNL1       -0.3077
      8 C          63.2492   85.5232   12.8702 C.3     1  UNL1        0.0901
      9 C          63.1406   86.6747   13.8253 C.3     1  UNL1        0.0921
     10 C          62.0096   85.7783   10.5158 C.ar    1  UNL1        0.0478
     11 C          62.1786   85.5169    9.0485 C.ar    1  UNL1        0.0145
     12 C          61.3426   86.2643    8.0523 C.ar    1  UNL1        0.0051
     13 C          60.3374   87.2731    8.5234 C.ar    1  UNL1        0.0715
     14 C          60.1683   87.5345    9.9908 C.ar    1  UNL1        0.0051
     15 C          61.0044   86.7871   10.9870 C.ar    1  UNL1        0.0145
     16 C          59.5013   88.0205    7.5273 C.3     1  UNL1        0.4186
     17 F          58.6652   88.7678    6.5311 F       1  UNL1       -0.1659
     18 F          60.1421   89.3075    7.9551 F       1  UNL1       -0.1659
     19 F          58.8606   86.7334    7.0994 F       1  UNL1       -0.1659
     20 C          63.0508   88.2575   16.5744 C.3     1  UNL1        0.0294
     21 C          63.0544   89.5256   15.7731 C.3     1  UNL1        0.0666
     22 S          64.3530   90.1169   15.3107 S.3     1  UNL1       -0.0756
     23 C          66.8079   91.9873   14.2503 C.3     1  UNL1        0.1340
     24 N          65.5669   91.6422   13.4818 N.ar    1  UNL1       -0.2884
     25 C          64.4385   90.7825   13.9692 C.ar    1  UNL1        0.1932
     26 N          63.4105   90.7051   12.8795 N.ar    1  UNL1       -0.1221
     27 N          63.9036   91.5171   11.7187 N.ar    1  UNL1       -0.1282
     28 C          65.2363   92.0963   12.0908 C.ar    1  UNL1        0.1670
     29 C          66.0888   92.9751   11.2243 C.ar    1  UNL1        0.0422
     30 C          66.0739   94.4623   11.4196 C.ar    1  UNL1        0.0217
     31 C          66.9263   95.3411   10.5531 C.ar    1  UNL1        0.0748
     32 N          67.7936   94.7328    9.4911 N.ar    1  UNL1       -0.3199
     33 C          67.8085   93.2456    9.2957 C.ar    1  UNL1        0.2578
     34 O          68.6758   92.6374    8.2337 O.2     1  UNL1       -0.2672
     35 C          66.9560   92.3668   10.1623 C.ar    1  UNL1        0.0636
     36 H          68.3531   95.3096    8.9223 H       1  UNL1        0.1690
@<TRIPOS>BOND
     1    23    24    1
     2    24    25   ar
     3    25    22    1
     4    22    21    1
     5    21    20    1
     6    20     1    1
     7     1     2    1
     8     2     3    1
     9     3     4    1
    10     4     5    1
    11     5     6    1
    12     6     7    1
    13     7    10    1
    14    10    11   ar
    15    11    12   ar
    16    12    13   ar
    17    13    16    1
    18    16    17    1
    19    16    18    1
    20    16    19    1
    21    13    14   ar
    22    14    15   ar
    23     7     8    1
    24     8     9    1
    25    25    26   ar
    26    26    27   ar
    27    27    28   ar
    28    28    29    1
    29    29    30   ar
    30    30    31   ar
    31    31    32   ar
    32    32    33   ar
    33    33    34    2
    34    33    35   ar
    35    28    24   ar
    36    35    29   ar
    37     9     2    1
    38     8     4    1
    39    15    10   ar
    40    32    36    1
@<TRIPOS>MOLECULE
*****
 36 40 0 0 0
SMALL
GASTEIGER

@<TRIPOS>ATOM
      1 C          63.4721   89.8351   16.6579 C.3     1  UNL1        0.0731
      2 N          63.6225   90.2466   15.2233 N.3     1  UNL1       -0.2712
      3 C          64.5428   91.3108   14.7032 C.3     1  UNL1        0.0738
      4 C          64.3681   91.3880   13.2154 C.3     1  UNL1        0.0372
      5 C          64.8289   92.0934   11.9744 C.3     1  UNL1        0.0245
      6 C          64.0854   91.5129   10.8080 C.3     1  UNL1        0.0909
      7 N          63.1651   90.4487   11.3283 N.pl3   1  UNL1       -0.3077
      8 C          63.3398   90.3715   12.8160 C.3     1  UNL1        0.0901
      9 C          62.8790   89.6661   14.0570 C.3     1  UNL1        0.0921
     10 C          62.2336   89.6091   10.5051 C.ar    1  UNL1        0.0478
     11 C          62.4808   88.1368   10.3605 C.ar    1  UNL1        0.0145
     12 C          61.5493   87.2972    9.5374 C.ar    1  UNL1        0.0051
     13 C          60.3707   87.9300    8.8589 C.ar    1  UNL1        0.0715
     14 C          60.1235   89.4025    9.0036 C.ar    1  UNL1        0.0051
     15 C          61.0549   90.2420    9.8267 C.ar    1  UNL1        0.0145
     16 C          59.4392   87.0905    8.0358 C.3     1  UNL1        0.4186
     17 F          58.5077   86.2509    7.2127 F       1  UNL1       -0.1659
     18 F          60.1534   85.8522    8.4906 F       1  UNL1       -0.1659
     19 F          58.7250   88.3287    7.5811 F       1  UNL1       -0.1659
     20 C          62.5814   88.6832   17.0183 C.3     1  UNL1        0.0294
     21 C          63.1522   87.4824   17.7128 C.3     1  UNL1        0.0666
     22 S          62.8333   86.1047   17.2126 S.3     1  UNL1       -0.0756
     23 C          61.6486   83.8068   15.2211 C.3     1  UNL1        0.1340
     24 N          62.9534   84.5284   15.0572 N.ar    1  UNL1       -0.2884
     25 C          63.4979   85.5846   15.9726 C.ar    1  UNL1        0.1932
     26 N          64.8238   86.0294   15.4302 N.ar    1  UNL1       -0.1221
     27 N          65.0988   85.2481   14.1796 N.ar    1  UNL1       -0.1282
     28 C          63.9428   84.3204   13.9490 C.ar    1  UNL1        0.1670
     29 C          63.8011   83.3543   12.8103 C.ar    1  UNL1        0.0422
     30 C          64.2083   83.7624   11.4255 C.ar    1  UNL1        0.0217
     31 C          64.0666   82.7964   10.2868 C.ar    1  UNL1        0.0748
     32 N          63.5177   81.4222   10.5329 N.ar    1  UNL1       -0.3199
     33 C          63.1104   81.0142   11.9177 C.ar    1  UNL1        0.2578
     34 O          62.5615   79.6401   12.1638 O.2     1  UNL1       -0.2672
     35 C          63.2522   81.9803   13.0564 C.ar    1  UNL1        0.0636
     36 H          63.4247   80.7882    9.7856 H       1  UNL1        0.1690
@<TRIPOS>BOND
     1    23    24    1
     2    24    25   ar
     3    25    22    1
     4    22    21    1
     5    21    20    1
     6    20     1    1
     7     1     2    1
     8     2     3    1
     9     3     4    1
    10     4     5    1
    11     5     6    1
    12     6     7    1
    13     7    10    1
    14    10    11   ar
    15    11    12   ar
    16    12    13   ar
    17    13    16    1
    18    16    17    1
    19    16    18    1
    20    16    19    1
    21    13    14   ar
    22    14    15   ar
    23     7     8    1
    24     8     9    1
    25    25    26   ar
    26    26    27   ar
    27    27    28   ar
    28    28    29    1
    29    29    30   ar
    30    30    31   ar
    31    31    32   ar
    32    32    33   ar
    33    33    34    2
    34    33    35   ar
    35    28    24   ar
    36    35    29   ar
    37     9     2    1
    38     8     4    1
    39    15    10   ar
    40    32    36    1
@<TRIPOS>MOLECULE
*****
 36 40 0 0 0
SMALL
GASTEIGER

@<TRIPOS>ATOM
      1 C          64.1162   91.3360   13.6075 C.3     1  UNL1        0.0731
      2 N          63.3359   90.6089   12.5527 N.3     1  UNL1       -0.2712
      3 C          62.3397   91.2215   11.6135 C.3     1  UNL1        0.0738
      4 C          61.8031   90.1327   10.7323 C.3     1  UNL1        0.0372
      5 C          60.8557   89.8384    9.6072 C.3     1  UNL1        0.0245
      6 C          60.9347   88.3710    9.3064 C.3     1  UNL1        0.0909
      7 N          61.9310   87.7584   10.2457 N.pl3   1  UNL1       -0.3077
      8 C          62.4676   88.8472   11.1269 C.3     1  UNL1        0.0901
      9 C          63.4150   89.1415   12.2520 C.3     1  UNL1        0.0921
     10 C          62.3220   86.3110   10.2951 C.ar    1  UNL1        0.0478
     11 C          62.2562   85.5602   11.5919 C.ar    1  UNL1        0.0145
     12 C          62.6472   84.1129   11.6413 C.ar    1  UNL1        0.0051
     13 C          63.1039   83.4164   10.3938 C.ar    1  UNL1        0.0715
     14 C          63.1696   84.1672    9.0968 C.ar    1  UNL1        0.0051
     15 C          62.7786   85.6146    9.0475 C.ar    1  UNL1        0.0145
     16 C          63.4948   81.9691   10.4432 C.3     1  UNL1        0.4186
     17 F          63.8858   80.5218   10.4925 F       1  UNL1       -0.1659
     18 F          62.2306   81.6529   11.1860 F       1  UNL1       -0.1659
     19 F          64.7591   82.2853    9.7003 F       1  UNL1       -0.1659
     20 C          64.3078   90.7159   14.9597 C.3     1  UNL1        0.0294
     21 C          63.1465   90.0802   15.6649 C.3     1  UNL1        0.0666
     22 S          63.3862   89.1531   16.8194 S.3     1  UNL1       -0.0756
     23 C          64.6207   86.8820   14.8274 C.3     1  UNL1        0.1340
     24 N          63.5144   86.6774   15.8196 N.ar    1  UNL1       -0.2884
     25 C          62.9470   87.7213   16.7352 C.ar    1  UNL1        0.1932
     26 N          61.8633   87.0821   17.5519 N.ar    1  UNL1       -0.1221
     27 N          61.7609   85.6431   17.1410 N.ar    1  UNL1       -0.1282
     28 C          62.7814   85.3929   16.0704 C.ar    1  UNL1        0.1670
     29 C          63.0258   84.0876   15.3730 C.ar    1  UNL1        0.0422
     30 C          64.4156   83.7101   14.9535 C.ar    1  UNL1        0.0217
     31 C          64.6600   82.4047   14.2562 C.ar    1  UNL1        0.0748
     32 N          63.5146   81.4769   13.9783 N.ar    1  UNL1       -0.3199
     33 C          62.1248   81.8543   14.3979 C.ar    1  UNL1        0.2578
     34 O          60.9794   80.9264   14.1200 O.2     1  UNL1       -0.2672
     35 C          61.8804   83.1597   15.0952 C.ar    1  UNL1        0.0636
     36 H          63.6750   80.6201   13.5207 H       1  UNL1        0.1690
@<TRIPOS>BOND
     1    23    24    1
     2    24    25   ar
     3    25    22    1
     4    22    21    1
     5    21    20    1
     6    20     1    1
     7     1     2    1
     8     2     3    1
     9     3     4    1
    10     4     5    1
    11     5     6    1
    12     6     7    1
    13     7    10    1
    14    10    11   ar
    15    11    12   ar
    16    12    13   ar
    17    13    16    1
    18    16    17    1
    19    16    18    1
    20    16    19    1
    21    13    14   ar
    22    14    15   ar
    23     7     8    1
    24     8     9    1
    25    25    26   ar
    26    26    27   ar
    27    27    28   ar
    28    28    29    1
    29    29    30   ar
    30    30    31   ar
    31    31    32   ar
    32    32    33   ar
    33    33    34    2
    34    33    35   ar
    35    28    24   ar
    36    35    29   ar
    37     9     2    1
    38     8     4    1
    39    15    10   ar
    40    32    36    1
@<TRIPOS>MOLECULE
*****
 36 40 0 0 0
SMALL
GASTEIGER

@<TRIPOS>ATOM
      1 C          58.9887   89.2487    6.8963 C.3     1  UNL1        0.0731
      2 N          59.7854   88.5799    7.9770 N.3     1  UNL1       -0.2712
      3 C          59.7979   87.1114    8.2828 C.3     1  UNL1        0.0738
      4 C          60.7298   86.8861    9.4364 C.3     1  UNL1        0.0372
      5 C          61.3134   85.8393   10.3384 C.3     1  UNL1        0.0245
      6 C          62.2375   86.5215   11.3031 C.3     1  UNL1        0.0909
      7 N          62.2250   87.9900   10.9973 N.pl3   1  UNL1       -0.3077
      8 C          61.2932   88.2153    9.8436 C.3     1  UNL1        0.0901
      9 C          60.7096   89.2621    8.9417 C.3     1  UNL1        0.0921
     10 C          63.0071   89.0475   11.7185 C.ar    1  UNL1        0.0478
     11 C          63.2334   90.3832   11.0746 C.ar    1  UNL1        0.0145
     12 C          64.0154   91.4406   11.7958 C.ar    1  UNL1        0.0051
     13 C          64.5712   91.1624   13.1610 C.ar    1  UNL1        0.0715
     14 C          64.3449   89.8267   13.8050 C.ar    1  UNL1        0.0051
     15 C          63.5629   88.7692   13.0837 C.ar    1  UNL1        0.0145
     16 C          65.3532   92.2199   13.8822 C.3     1  UNL1        0.4186
     17 F          66.1353   93.2773   14.6034 F       1  UNL1       -0.1659
     18 F          65.4201   91.3421   15.0967 F       1  UNL1       -0.1659
     19 F          65.2864   93.0977   12.6677 F       1  UNL1       -0.1659
     20 C          59.6271   90.2958    6.0327 C.3     1  UNL1        0.0294
     21 C          58.8008   91.0501    5.0335 C.3     1  UNL1        0.0666
     22 S          59.3130   92.3354    4.4543 S.3     1  UNL1       -0.0756
     23 C          59.8496   93.9495    1.6693 C.3     1  UNL1        0.1340
     24 N          60.8418   93.0909    2.3959 N.ar    1  UNL1       -0.2884
     25 C          60.5952   92.3489    3.6761 C.ar    1  UNL1        0.1932
     26 N          61.8559   91.6229    4.0414 N.ar    1  UNL1       -0.1221
     27 N          62.8818   91.9161    2.9870 N.ar    1  UNL1       -0.1282
     28 C          62.2551   92.8233    1.9700 C.ar    1  UNL1        0.1670
     29 C          62.9241   93.3675    0.7427 C.ar    1  UNL1        0.0422
     30 C          62.4105   92.9985   -0.6175 C.ar    1  UNL1        0.0217
     31 C          63.0796   93.5427   -1.8448 C.ar    1  UNL1        0.0748
     32 N          64.2622   94.4558   -1.7118 N.ar    1  UNL1       -0.3199
     33 C          64.7758   94.8248   -0.3516 C.ar    1  UNL1        0.2578
     34 O          65.9583   95.7380   -0.2188 O.2     1  UNL1       -0.2672
     35 C          64.1067   94.2806    0.8757 C.ar    1  UNL1        0.0636
     36 H          64.7013   94.8130   -2.5173 H       1  UNL1        0.1690
@<TRIPOS>BOND
     1    23    24    1
     2    24    25   ar
     3    25    22    1
     4    22    21    1
     5    21    20    1
     6    20     1    1
     7     1     2    1
     8     2     3    1
     9     3     4    1
    10     4     5    1
    11     5     6    1
    12     6     7    1
    13     7    10    1
    14    10    11   ar
    15    11    12   ar
    16    12    13   ar
    17    13    16    1
    18    16    17    1
    19    16    18    1
    20    16    19    1
    21    13    14   ar
    22    14    15   ar
    23     7     8    1
    24     8     9    1
    25    25    26   ar
    26    26    27   ar
    27    27    28   ar
    28    28    29    1
    29    29    30   ar
    30    30    31   ar
    31    31    32   ar
    32    32    33   ar
    33    33    34    2
    34    33    35   ar
    35    28    24   ar
    36    35    29   ar
    37     9     2    1
    38     8     4    1
    39    15    10   ar
    40    32    36    1
@<TRIPOS>MOLECULE
*****
 36 40 0 0 0
SMALL
GASTEIGER

@<TRIPOS>ATOM
      1 C          64.3342   89.1118   14.2544 C.3     1  UNL1        0.0731
      2 N          63.2333   89.2181   13.2411 N.3     1  UNL1       -0.2712
      3 C          62.1280   90.2321   13.2431 C.3     1  UNL1        0.0738
      4 C          61.2560   89.9696   12.0512 C.3     1  UNL1        0.0372
      5 C          60.0340   90.4341   11.3158 C.3     1  UNL1        0.0245
      6 C          59.8450   89.5449   10.1226 C.3     1  UNL1        0.0909
      7 N          60.9504   88.5308   10.1207 N.pl3   1  UNL1       -0.3077
      8 C          61.8224   88.7933   11.3126 C.3     1  UNL1        0.0901
      9 C          63.0444   88.3288   12.0480 C.3     1  UNL1        0.0921
     10 C          61.1488   87.4448    9.1051 C.ar    1  UNL1        0.0478
     11 C          60.0581   87.1249    8.1264 C.ar    1  UNL1        0.0145
     12 C          60.2565   86.0389    7.1108 C.ar    1  UNL1        0.0051
     13 C          61.5456   85.2730    7.0739 C.ar    1  UNL1        0.0715
     14 C          62.6364   85.5930    8.0527 C.ar    1  UNL1        0.0051
     15 C          62.4380   86.6789    9.0682 C.ar    1  UNL1        0.0145
     16 C          61.7440   84.1871    6.0583 C.3     1  UNL1        0.4186
     17 F          61.9424   83.1012    5.0428 F       1  UNL1       -0.1659
     18 F          60.2817   83.8593    6.1231 F       1  UNL1       -0.1659
     19 F          63.2064   84.5148    5.9936 F       1  UNL1       -0.1659
     20 C          64.1576   89.7086   15.6192 C.3     1  UNL1        0.0294
     21 C          63.1304   89.1461   16.5566 C.3     1  UNL1        0.0666
     22 S          63.3483   87.8040   17.1901 S.3     1  UNL1       -0.0756
     23 C          64.8632   85.9317   14.9880 C.3     1  UNL1        0.1340
     24 N          63.4838   85.7102   15.5340 N.ar    1  UNL1       -0.2884
     25 C          62.7874   86.5708   16.5462 C.ar    1  UNL1        0.1932
     26 N          61.4318   85.9817   16.8015 N.ar    1  UNL1       -0.1221
     27 N          61.2902   84.7570   15.9471 N.ar    1  UNL1       -0.1282
     28 C          62.5584   84.5892   15.1637 C.ar    1  UNL1        0.1670
     29 C          62.8500   83.4928   14.1823 C.ar    1  UNL1        0.0422
     30 C          62.2879   82.1198   14.4029 C.ar    1  UNL1        0.0217
     31 C          62.5795   81.0234   13.4215 C.ar    1  UNL1        0.0748
     32 N          63.4333   81.3003   12.2196 N.ar    1  UNL1       -0.3199
     33 C          63.9955   82.6734   11.9991 C.ar    1  UNL1        0.2578
     34 O          64.8492   82.9501   10.7973 O.2     1  UNL1       -0.2672
     35 C          63.7038   83.7697   12.9805 C.ar    1  UNL1        0.0636
     36 H          63.6247   80.5808   11.5755 H       1  UNL1        0.1690
@<TRIPOS>BOND
     1    23    24    1
     2    24    25   ar
     3    25    22    1
     4    22    21    1
     5    21    20    1
     6    20     1    1
     7     1     2    1
     8     2     3    1
     9     3     4    1
    10     4     5    1
    11     5     6    1
    12     6     7    1
    13     7    10    1
    14    10    11   ar
    15    11    12   ar
    16    12    13   ar
    17    13    16    1
    18    16    17    1
    19    16    18    1
    20    16    19    1
    21    13    14   ar
    22    14    15   ar
    23     7     8    1
    24     8     9    1
    25    25    26   ar
    26    26    27   ar
    27    27    28   ar
    28    28    29    1
    29    29    30   ar
    30    30    31   ar
    31    31    32   ar
    32    32    33   ar
    33    33    34    2
    34    33    35   ar
    35    28    24   ar
    36    35    29   ar
    37     9     2    1
    38     8     4    1
    39    15    10   ar
    40    32    36    1
@<TRIPOS>MOLECULE
*****
 36 40 0 0 0
SMALL
GASTEIGER

@<TRIPOS>ATOM
      1 C          59.2800   88.9642    7.3490 C.3     1  UNL1        0.0731
      2 N          60.2185   88.8831    8.5163 N.3     1  UNL1       -0.2712
      3 C          60.8535   90.0459    9.2196 C.3     1  UNL1        0.0738
      4 C          61.7142   89.5063   10.3232 C.3     1  UNL1        0.0372
      5 C          62.6387   89.8915   11.4399 C.3     1  UNL1        0.0245
      6 C          63.1070   88.6333   12.1089 C.3     1  UNL1        0.0909
      7 N          62.4719   87.4704   11.4056 N.pl3   1  UNL1       -0.3077
      8 C          61.6112   88.0100   10.3020 C.3     1  UNL1        0.0901
      9 C          60.6868   87.6248    9.1853 C.3     1  UNL1        0.0921
     10 C          62.6639   86.0223   11.7462 C.ar    1  UNL1        0.0478
     11 C          63.0442   85.6239   13.1414 C.ar    1  UNL1        0.0145
     12 C          63.2361   84.1758   13.4820 C.ar    1  UNL1        0.0051
     13 C          63.0479   83.1259   12.4274 C.ar    1  UNL1        0.0715
     14 C          62.6676   83.5242   11.0321 C.ar    1  UNL1        0.0051
     15 C          62.4756   84.9724   10.6915 C.ar    1  UNL1        0.0145
     16 C          63.2399   81.6778   12.7680 C.3     1  UNL1        0.4186
     17 F          63.4319   80.2296   13.1085 F       1  UNL1       -0.1659
     18 F          64.7220   81.8343   12.5977 F       1  UNL1       -0.1659
     19 F          61.7578   81.5213   12.9382 F       1  UNL1       -0.1659
     20 C          59.6432   89.7901    6.1507 C.3     1  UNL1        0.0294
     21 C          58.6233   90.6961    5.5271 C.3     1  UNL1        0.0666
     22 S          59.0632   91.9292    4.7951 S.3     1  UNL1       -0.0756
     23 C          59.7920   93.5742    2.0725 C.3     1  UNL1        0.1340
     24 N          60.7349   92.7171    2.8638 N.ar    1  UNL1       -0.2884
     25 C          60.3999   91.9609    4.1152 C.ar    1  UNL1        0.1932
     26 N          61.6363   91.2420    4.5675 N.ar    1  UNL1       -0.1221
     27 N          62.7355   91.5539    3.5955 N.ar    1  UNL1       -0.1282
     28 C          62.1784   92.4655    2.5426 C.ar    1  UNL1        0.1670
     29 C          62.9324   93.0269    1.3737 C.ar    1  UNL1        0.0422
     30 C          64.3149   93.5760    1.5667 C.ar    1  UNL1        0.0217
     31 C          65.0689   94.1375    0.3978 C.ar    1  UNL1        0.0748
     32 N          64.4403   94.1498   -0.9641 N.ar    1  UNL1       -0.3199
     33 C          63.0579   93.6007   -1.1571 C.ar    1  UNL1        0.2578
     34 O          62.4294   93.6130   -2.5191 O.2     1  UNL1       -0.2672
     35 C          62.3039   93.0392    0.0118 C.ar    1  UNL1        0.0636
     36 H          64.9352   94.5182   -1.7313 H       1  UNL1        0.1690
@<TRIPOS>BOND
     1    23    24    1
     2    24    25   ar
     3    25    22    1
     4    22    21    1
     5    21    20    1
     6    20     1    1
     7     1     2    1
     8     2     3    1
     9     3     4    1
    10     4     5    1
    11     5     6    1
    12     6     7    1
    13     7    10    1
    14    10    11   ar
    15    11    12   ar
    16    12    13   ar
    17    13    16    1
    18    16    17    1
    19    16    18    1
    20    16    19    1
    21    13    14   ar
    22    14    15   ar
    23     7     8    1
    24     8     9    1
    25    25    26   ar
    26    26    27   ar
    27    27    28   ar
    28    28    29    1
    29    29    30   ar
    30    30    31   ar
    31    31    32   ar
    32    32    33   ar
    33    33    34    2
    34    33    35   ar
    35    28    24   ar
    36    35    29   ar
    37     9     2    1
    38     8     4    1
    39    15    10   ar
    40    32    36    1
