@<TRIPOS>MOLECULE
*****
 30 33 0 0 0
SMALL
GASTEIGER

@<TRIPOS>ATOM
      1 N          62.5135   85.8643    9.0502 N.am    1  UNL1       -0.2683
      2 C          62.4031   85.0513   10.3060 C.2     1  UNL1        0.3047
      3 O          61.2749   85.2991   11.2631 O.2     1  UNL1       -0.2525
      4 N          63.4208   83.9907   10.6048 N.am    1  UNL1       -0.2863
      5 H          63.2539   85.7017    8.4221 H       1  UNL1        0.1564
      6 H          64.1612   83.8281    9.9766 H       1  UNL1        0.1512
      7 C          63.3103   83.1778   11.8605 C.3     1  UNL1        0.1019
      8 C          63.0119   81.7100   11.7800 C.3     1  UNL1        0.0642
      9 C          62.9015   80.8971   13.0359 C.3     1  UNL1        0.1352
     10 C          62.7017   79.7141   13.9361 C.3     1  UNL1        0.0437
     11 C          62.6441   79.8313   12.0122 C.3     1  UNL1        0.0437
     12 O          63.0894   81.5521   14.3722 O.3     1  UNL1       -0.4827
     13 C          63.3878   83.0199   14.4527 C.ar    1  UNL1        0.1379
     14 C          63.5758   83.6748   15.7889 C.ar    1  UNL1        0.0662
     15 C          63.8742   85.1426   15.8695 C.ar    1  UNL1        0.1431
     16 F          64.0622   85.7975   17.2058 F       1  UNL1       -0.2041
     17 C          63.9846   85.9555   14.6137 C.ar    1  UNL1        0.0296
     18 C          63.7967   85.3006   13.2774 C.ar    1  UNL1        0.0026
     19 C          63.4983   83.8328   13.1969 C.ar    1  UNL1        0.0298
     20 C          63.3791   89.8245   12.6304 C.3     1  UNL1        0.0521
     21 C          62.3994   89.6299   11.5113 C.ar    1  UNL1        0.0594
     22 C          62.4374   88.3747   10.6910 C.ar    1  UNL1        0.0160
     23 C          61.4577   88.1802    9.5719 C.ar    1  UNL1        0.0162
     24 C          61.4958   86.9249    8.7515 C.ar    1  UNL1        0.0516
     25 C          60.5161   86.7304    7.6324 C.ar    1  UNL1        0.0147
     26 C          59.4983   87.7911    7.3337 C.ar    1  UNL1        0.0013
     27 C          59.4603   89.0463    8.1541 C.ar    1  UNL1        0.0016
     28 C          60.4400   89.2408    9.2731 C.ar    1  UNL1        0.0204
     29 C          60.4020   90.4960   10.0935 C.ar    1  UNL1        0.0984
     30 N          61.3817   90.6906   11.2126 N.ar    1  UNL1       -0.2481
@<TRIPOS>BOND
     1    20    21    1
     2    21    22   ar
     3    22    23   ar
     4    23    24   ar
     5    24     1    1
     6     1     2   am
     7     2     3    2
     8     2     4   am
     9     7     4    1
    10     7     8    1
    11     8     9    1
    12     9    10    1
    13     9    11    1
    14     9    12    1
    15    12    13    1
    16    13    14   ar
    17    14    15   ar
    18    15    16    1
    19    15    17   ar
    20    17    18   ar
    21    18    19   ar
    22    24    25   ar
    23    25    26   ar
    24    26    27   ar
    25    27    28   ar
    26    28    29   ar
    27    29    30   ar
    28    30    21   ar
    29    28    23   ar
    30    19     7    1
    31    19    13   ar
    32     1     5    1
    33     4     6    1
@<TRIPOS>MOLECULE
*****
 30 33 0 0 0
SMALL
GASTEIGER

@<TRIPOS>ATOM
      1 N          62.2158   86.8297   11.5652 N.am    1  UNL1       -0.2683
      2 C          63.0082   87.8213   12.3645 C.2     1  UNL1        0.3047
      3 O          64.2547   87.3859   13.0764 O.2     1  UNL1       -0.2525
      4 N          62.5542   89.2483   12.4518 N.am    1  UNL1       -0.2863
      5 H          61.3977   87.1154   11.0979 H       1  UNL1        0.1564
      6 H          61.7361   89.5340   11.9846 H       1  UNL1        0.1512
      7 C          63.3466   90.2398   13.2511 C.3     1  UNL1        0.1019
      8 C          63.3093   90.1960   14.7500 C.3     1  UNL1        0.0642
      9 C          64.1018   91.1876   15.5493 C.3     1  UNL1        0.1352
     10 C          64.6751   91.9063   16.7345 C.3     1  UNL1        0.0437
     11 C          63.4711   90.4019   16.6605 C.3     1  UNL1        0.0437
     12 O          64.9316   92.2230   14.8496 O.3     1  UNL1       -0.4827
     13 C          64.9689   92.2667   13.3507 C.ar    1  UNL1        0.1379
     14 C          65.7987   93.3020   12.6511 C.ar    1  UNL1        0.0662
     15 C          65.8361   93.3458   11.1522 C.ar    1  UNL1        0.1431
     16 F          66.6659   94.3812   10.4526 F       1  UNL1       -0.2041
     17 C          65.0436   92.3543   10.3529 C.ar    1  UNL1        0.0296
     18 C          64.2139   91.3190   11.0526 C.ar    1  UNL1        0.0026
     19 C          64.1765   91.2752   12.5515 C.ar    1  UNL1        0.0298
     20 C          62.3326   84.9791   16.6457 C.3     1  UNL1        0.0521
     21 C          62.6440   84.3716   15.3101 C.ar    1  UNL1        0.0594
     22 C          62.5012   85.1909   14.0618 C.ar    1  UNL1        0.0160
     23 C          62.8126   84.5833   12.7261 C.ar    1  UNL1        0.0162
     24 C          62.6698   85.4028   11.4778 C.ar    1  UNL1        0.0516
     25 C          62.9811   84.7952   10.1422 C.ar    1  UNL1        0.0147
     26 C          63.4352   83.3682   10.0549 C.ar    1  UNL1        0.0013
     27 C          63.5779   82.5488   11.3031 C.ar    1  UNL1        0.0016
     28 C          63.2666   83.1564   12.6388 C.ar    1  UNL1        0.0204
     29 C          63.4093   82.3371   13.8871 C.ar    1  UNL1        0.0984
     30 N          63.0980   82.9446   15.2227 N.ar    1  UNL1       -0.2481
@<TRIPOS>BOND
     1    20    21    1
     2    21    22   ar
     3    22    23   ar
     4    23    24   ar
     5    24     1    1
     6     1     2   am
     7     2     3    2
     8     2     4   am
     9     7     4    1
    10     7     8    1
    11     8     9    1
    12     9    10    1
    13     9    11    1
    14     9    12    1
    15    12    13    1
    16    13    14   ar
    17    14    15   ar
    18    15    16    1
    19    15    17   ar
    20    17    18   ar
    21    18    19   ar
    22    24    25   ar
    23    25    26   ar
    24    26    27   ar
    25    27    28   ar
    26    28    29   ar
    27    29    30   ar
    28    30    21   ar
    29    28    23   ar
    30    19     7    1
    31    19    13   ar
    32     1     5    1
    33     4     6    1
@<TRIPOS>MOLECULE
*****
 30 33 0 0 0
SMALL
GASTEIGER

@<TRIPOS>ATOM
      1 N          62.8903   90.0150   13.4918 N.am    1  UNL1       -0.2683
      2 C          63.2768   88.6021   13.1686 C.2     1  UNL1        0.3047
      3 O          64.5260   88.0135   13.7543 O.2     1  UNL1       -0.2525
      4 N          62.4140   87.7778   12.2597 N.am    1  UNL1       -0.2863
      5 H          62.0704   90.4013   13.1074 H       1  UNL1        0.1564
      6 H          61.5941   88.1641   11.8753 H       1  UNL1        0.1512
      7 C          62.8005   86.3649   11.9366 C.3     1  UNL1        0.1019
      8 C          63.2757   85.4495   13.0257 C.3     1  UNL1        0.0642
      9 C          63.6622   84.0366   12.7024 C.3     1  UNL1        0.1352
     10 C          64.1367   82.6265   12.8928 C.3     1  UNL1        0.0437
     11 C          63.9158   84.0443   14.1809 C.3     1  UNL1        0.0437
     12 O          63.5734   83.5392   11.2902 O.3     1  UNL1       -0.4827
     13 C          63.0981   84.4546   10.2010 C.ar    1  UNL1        0.1379
     14 C          63.0093   83.9571    8.7888 C.ar    1  UNL1        0.0662
     15 C          62.5340   84.8725    7.6996 C.ar    1  UNL1        0.1431
     16 F          62.4452   84.3750    6.2873 F       1  UNL1       -0.2041
     17 C          62.1476   86.2853    8.0228 C.ar    1  UNL1        0.0296
     18 C          62.2364   86.7828    9.4351 C.ar    1  UNL1        0.0026
     19 C          62.7116   85.8674   10.5242 C.ar    1  UNL1        0.0298
     20 C          66.1969   92.8341   10.2717 C.3     1  UNL1        0.0521
     21 C          66.0173   92.7476   11.7584 C.ar    1  UNL1        0.0594
     22 C          64.9750   91.8367   12.3362 C.ar    1  UNL1        0.0160
     23 C          64.7955   91.7502   13.8229 C.ar    1  UNL1        0.0162
     24 C          63.7531   90.8393   14.4007 C.ar    1  UNL1        0.0516
     25 C          63.5736   90.7528   15.8874 C.ar    1  UNL1        0.0147
     26 C          64.4364   91.5771   16.7963 C.ar    1  UNL1        0.0013
     27 C          65.4787   92.4880   16.2185 C.ar    1  UNL1        0.0016
     28 C          65.6583   92.5745   14.7318 C.ar    1  UNL1        0.0204
     29 C          66.7006   93.4853   14.1539 C.ar    1  UNL1        0.0984
     30 N          66.8801   93.5719   12.6672 N.ar    1  UNL1       -0.2481
@<TRIPOS>BOND
     1    20    21    1
     2    21    22   ar
     3    22    23   ar
     4    23    24   ar
     5    24     1    1
     6     1     2   am
     7     2     3    2
     8     2     4   am
     9     7     4    1
    10     7     8    1
    11     8     9    1
    12     9    10    1
    13     9    11    1
    14     9    12    1
    15    12    13    1
    16    13    14   ar
    17    14    15   ar
    18    15    16    1
    19    15    17   ar
    20    17    18   ar
    21    18    19   ar
    22    24    25   ar
    23    25    26   ar
    24    26    27   ar
    25    27    28   ar
    26    28    29   ar
    27    29    30   ar
    28    30    21   ar
    29    28    23   ar
    30    19     7    1
    31    19    13   ar
    32     1     5    1
    33     4     6    1
@<TRIPOS>MOLECULE
*****
 30 33 0 0 0
SMALL
GASTEIGER

@<TRIPOS>ATOM
      1 N          63.4261   91.3073   13.4804 N.am    1  UNL1       -0.2683
      2 C          63.2864   89.8904   13.0079 C.2     1  UNL1        0.3047
      3 O          64.1986   88.8275   13.5447 O.2     1  UNL1       -0.2525
      4 N          62.2346   89.5365   11.9988 N.am    1  UNL1       -0.2863
      5 H          62.8274   92.0049   13.1281 H       1  UNL1        0.1564
      6 H          61.6359   90.2342   11.6465 H       1  UNL1        0.1512
      7 C          62.0951   88.1198   11.5264 C.3     1  UNL1        0.1019
      8 C          62.7527   87.0071   12.2876 C.3     1  UNL1        0.0642
      9 C          62.6131   85.5902   11.8151 C.3     1  UNL1        0.1352
     10 C          62.7693   84.0993   11.7652 C.3     1  UNL1        0.0437
     11 C          63.4647   85.3766   13.0314 C.3     1  UNL1        0.0437
     12 O          61.8158   85.2861   10.5816 O.3     1  UNL1       -0.4827
     13 C          61.1581   86.3988    9.8204 C.ar    1  UNL1        0.1379
     14 C          60.3608   86.0947    8.5868 C.ar    1  UNL1        0.0662
     15 C          59.7031   87.2073    7.8256 C.ar    1  UNL1        0.1431
     16 F          58.9058   86.9031    6.5919 F       1  UNL1       -0.2041
     17 C          59.8427   88.6241    8.2979 C.ar    1  UNL1        0.0296
     18 C          60.6400   88.9282    9.5315 C.ar    1  UNL1        0.0026
     19 C          61.2977   87.8156   10.2927 C.ar    1  UNL1        0.0298
     20 C          68.0319   91.8880   10.7058 C.3     1  UNL1        0.0521
     21 C          67.6693   92.0082   12.1563 C.ar    1  UNL1        0.0594
     22 C          66.2549   91.7746   12.5977 C.ar    1  UNL1        0.0160
     23 C          65.8923   91.8948   14.0482 C.ar    1  UNL1        0.0162
     24 C          64.4779   91.6611   14.4895 C.ar    1  UNL1        0.0516
     25 C          64.1152   91.7814   15.9401 C.ar    1  UNL1        0.0147
     26 C          65.1671   92.1353   16.9493 C.ar    1  UNL1        0.0013
     27 C          66.5815   92.3689   16.5079 C.ar    1  UNL1        0.0016
     28 C          66.9441   92.2487   15.0574 C.ar    1  UNL1        0.0204
     29 C          68.3585   92.4823   14.6160 C.ar    1  UNL1        0.0984
     30 N          68.7211   92.3621   13.1655 N.ar    1  UNL1       -0.2481
@<TRIPOS>BOND
     1    20    21    1
     2    21    22   ar
     3    22    23   ar
     4    23    24   ar
     5    24     1    1
     6     1     2   am
     7     2     3    2
     8     2     4   am
     9     7     4    1
    10     7     8    1
    11     8     9    1
    12     9    10    1
    13     9    11    1
    14     9    12    1
    15    12    13    1
    16    13    14   ar
    17    14    15   ar
    18    15    16    1
    19    15    17   ar
    20    17    18   ar
    21    18    19   ar
    22    24    25   ar
    23    25    26   ar
    24    26    27   ar
    25    27    28   ar
    26    28    29   ar
    27    29    30   ar
    28    30    21   ar
    29    28    23   ar
    30    19     7    1
    31    19    13   ar
    32     1     5    1
    33     4     6    1
@<TRIPOS>MOLECULE
*****
 30 33 0 0 0
SMALL
GASTEIGER

@<TRIPOS>ATOM
      1 N          61.7406   89.5098   11.9424 N.am    1  UNL1       -0.2683
      2 C          62.9737   90.3372   11.7301 C.2     1  UNL1        0.3047
      3 O          63.7685   90.1882   10.4668 O.2     1  UNL1       -0.2525
      4 N          63.4119   91.3136   12.7811 N.am    1  UNL1       -0.2863
      5 H          61.2190   89.6076   12.7716 H       1  UNL1        0.1564
      6 H          62.8902   91.4114   13.6103 H       1  UNL1        0.1512
      7 C          64.6449   92.1409   12.5688 C.3     1  UNL1        0.1019
      8 C          64.8125   92.9257   11.3015 C.3     1  UNL1        0.0642
      9 C          66.0456   93.7530   11.0892 C.3     1  UNL1        0.1352
     10 C          67.0269   94.6770   10.4310 C.3     1  UNL1        0.0437
     11 C          65.3210   94.0313    9.8056 C.3     1  UNL1        0.0437
     12 O          67.1110   93.7956   12.1442 O.3     1  UNL1       -0.4827
     13 C          66.9434   93.0109   13.4115 C.ar    1  UNL1        0.1379
     14 C          68.0088   93.0535   14.4664 C.ar    1  UNL1        0.0662
     15 C          67.8412   92.2688   15.7338 C.ar    1  UNL1        0.1431
     16 F          68.9067   92.3114   16.7888 F       1  UNL1       -0.2041
     17 C          66.6082   91.4414   15.9461 C.ar    1  UNL1        0.0296
     18 C          65.5428   91.3988   14.8911 C.ar    1  UNL1        0.0026
     19 C          65.7104   92.1835   13.6238 C.ar    1  UNL1        0.0298
     20 C          63.9419   84.7591   13.2972 C.3     1  UNL1        0.0521
     21 C          63.0630   85.2145   12.1702 C.ar    1  UNL1        0.0594
     22 C          62.6222   86.6462   12.0943 C.ar    1  UNL1        0.0160
     23 C          61.7432   87.1016   10.9673 C.ar    1  UNL1        0.0162
     24 C          61.3025   88.5334   10.8914 C.ar    1  UNL1        0.0516
     25 C          60.4235   88.9888    9.7644 C.ar    1  UNL1        0.0147
     26 C          59.9853   88.0124    8.7134 C.ar    1  UNL1        0.0013
     27 C          60.4261   86.5806    8.7893 C.ar    1  UNL1        0.0016
     28 C          61.3050   86.1253    9.9163 C.ar    1  UNL1        0.0204
     29 C          61.7458   84.6935    9.9923 C.ar    1  UNL1        0.0984
     30 N          62.6248   84.2382   11.1192 N.ar    1  UNL1       -0.2481
@<TRIPOS>BOND
     1    20    21    1
     2    21    22   ar
     3    22    23   ar
     4    23    24   ar
     5    24     1    1
     6     1     2   am
     7     2     3    2
     8     2     4   am
     9     7     4    1
    10     7     8    1
    11     8     9    1
    12     9    10    1
    13     9    11    1
    14     9    12    1
    15    12    13    1
    16    13    14   ar
    17    14    15   ar
    18    15    16    1
    19    15    17   ar
    20    17    18   ar
    21    18    19   ar
    22    24    25   ar
    23    25    26   ar
    24    26    27   ar
    25    27    28   ar
    26    28    29   ar
    27    29    30   ar
    28    30    21   ar
    29    28    23   ar
    30    19     7    1
    31    19    13   ar
    32     1     5    1
    33     4     6    1
@<TRIPOS>MOLECULE
*****
 30 33 0 0 0
SMALL
GASTEIGER

@<TRIPOS>ATOM
      1 N          62.3967   85.7280    9.1021 N.am    1  UNL1       -0.2683
      2 C          62.4858   85.2623   10.5252 C.2     1  UNL1        0.3047
      3 O          61.4594   85.7059   11.5251 O.2     1  UNL1       -0.2525
      4 N          63.6011   84.3530   10.9484 N.am    1  UNL1       -0.2863
      5 H          63.0703   85.4368    8.4458 H       1  UNL1        0.1564
      6 H          64.2747   84.0618   10.2921 H       1  UNL1        0.1512
      7 C          63.6901   83.8873   12.3715 C.3     1  UNL1        0.1019
      8 C          64.1101   84.8432   13.4485 C.3     1  UNL1        0.0642
      9 C          64.1991   84.3774   14.8716 C.3     1  UNL1        0.1352
     10 C          64.4311   84.4093   16.3532 C.3     1  UNL1        0.0437
     11 C          64.6106   85.8100   15.0401 C.3     1  UNL1        0.0437
     12 O          63.8681   82.9559   15.2177 O.3     1  UNL1       -0.4827
     13 C          63.4482   82.0001   14.1406 C.ar    1  UNL1        0.1379
     14 C          63.1172   80.5786   14.4867 C.ar    1  UNL1        0.0662
     15 C          62.6972   79.6228   13.4096 C.ar    1  UNL1        0.1431
     16 F          62.3662   78.2012   13.7557 F       1  UNL1       -0.2041
     17 C          62.6082   80.0885   11.9866 C.ar    1  UNL1        0.0296
     18 C          62.9392   81.5099   11.6405 C.ar    1  UNL1        0.0026
     19 C          63.3591   82.4658   12.7176 C.ar    1  UNL1        0.0298
     20 C          63.1100   90.3451   11.8267 C.3     1  UNL1        0.0521
     21 C          62.0951   89.8728   10.8282 C.ar    1  UNL1        0.0594
     22 C          62.1956   88.4912   10.2528 C.ar    1  UNL1        0.0160
     23 C          61.1808   88.0190    9.2543 C.ar    1  UNL1        0.0162
     24 C          61.2813   86.6373    8.6789 C.ar    1  UNL1        0.0516
     25 C          60.2665   86.1650    7.6804 C.ar    1  UNL1        0.0147
     26 C          59.1511   87.0744    7.2572 C.ar    1  UNL1        0.0013
     27 C          59.0506   88.4560    7.8326 C.ar    1  UNL1        0.0016
     28 C          60.0654   88.9283    8.8311 C.ar    1  UNL1        0.0204
     29 C          59.9650   90.3099    9.4065 C.ar    1  UNL1        0.0984
     30 N          60.9798   90.7821   10.4050 N.ar    1  UNL1       -0.2481
@<TRIPOS>BOND
     1    20    21    1
     2    21    22   ar
     3    22    23   ar
     4    23    24   ar
     5    24     1    1
     6     1     2   am
     7     2     3    2
     8     2     4   am
     9     7     4    1
    10     7     8    1
    11     8     9    1
    12     9    10    1
    13     9    11    1
    14     9    12    1
    15    12    13    1
    16    13    14   ar
    17    14    15   ar
    18    15    16    1
    19    15    17   ar
    20    17    18   ar
    21    18    19   ar
    22    24    25   ar
    23    25    26   ar
    24    26    27   ar
    25    27    28   ar
    26    28    29   ar
    27    29    30   ar
    28    30    21   ar
    29    28    23   ar
    30    19     7    1
    31    19    13   ar
    32     1     5    1
    33     4     6    1
@<TRIPOS>MOLECULE
*****
 30 33 0 0 0
SMALL
GASTEIGER

@<TRIPOS>ATOM
      1 N          61.3863   88.8922   11.6346 N.am    1  UNL1       -0.2683
      2 C          62.6298   89.5041   12.2085 C.2     1  UNL1        0.3047
      3 O          63.9337   88.7668   12.1295 O.2     1  UNL1       -0.2525
      4 N          62.5693   90.8531   12.8615 N.am    1  UNL1       -0.2863
      5 H          60.5305   89.3760   11.6864 H       1  UNL1        0.1564
      6 H          61.7135   91.3369   12.9134 H       1  UNL1        0.1512
      7 C          63.8128   91.4649   13.4354 C.3     1  UNL1        0.1019
      8 C          64.0236   91.4821   14.9204 C.3     1  UNL1        0.0642
      9 C          65.2671   92.0940   15.4943 C.3     1  UNL1        0.1352
     10 C          66.2733   92.5549   16.5068 C.3     1  UNL1        0.0437
     11 C          64.5839   91.6595   16.7571 C.3     1  UNL1        0.0437
     12 O          66.2998   92.6886   14.5833 O.3     1  UNL1       -0.4827
     13 C          66.0889   92.6714   13.0982 C.ar    1  UNL1        0.1379
     14 C          67.1215   93.2660   12.1872 C.ar    1  UNL1        0.0662
     15 C          66.9107   93.2487   10.7022 C.ar    1  UNL1        0.1431
     16 F          67.9434   93.8434    9.7911 F       1  UNL1       -0.2041
     17 C          65.6672   92.6369   10.1282 C.ar    1  UNL1        0.0296
     18 C          64.6346   92.0423   11.0393 C.ar    1  UNL1        0.0026
     19 C          64.8455   92.0596   12.5243 C.ar    1  UNL1        0.0298
     20 C          58.8828   89.4185    6.8695 C.3     1  UNL1        0.0521
     21 C          59.5541   88.2751    7.5711 C.ar    1  UNL1        0.0594
     22 C          60.1648   88.4808    8.9255 C.ar    1  UNL1        0.0160
     23 C          60.8360   87.3374    9.6271 C.ar    1  UNL1        0.0162
     24 C          61.4468   87.5431   10.9816 C.ar    1  UNL1        0.0516
     25 C          62.1180   86.3997   11.6831 C.ar    1  UNL1        0.0147
     26 C          62.1785   85.0506   11.0301 C.ar    1  UNL1        0.0013
     27 C          61.5677   84.8450    9.6756 C.ar    1  UNL1        0.0016
     28 C          60.8965   85.9884    8.9741 C.ar    1  UNL1        0.0204
     29 C          60.2858   85.7827    7.6196 C.ar    1  UNL1        0.0984
     30 N          59.6146   86.9261    6.9181 N.ar    1  UNL1       -0.2481
@<TRIPOS>BOND
     1    20    21    1
     2    21    22   ar
     3    22    23   ar
     4    23    24   ar
     5    24     1    1
     6     1     2   am
     7     2     3    2
     8     2     4   am
     9     7     4    1
    10     7     8    1
    11     8     9    1
    12     9    10    1
    13     9    11    1
    14     9    12    1
    15    12    13    1
    16    13    14   ar
    17    14    15   ar
    18    15    16    1
    19    15    17   ar
    20    17    18   ar
    21    18    19   ar
    22    24    25   ar
    23    25    26   ar
    24    26    27   ar
    25    27    28   ar
    26    28    29   ar
    27    29    30   ar
    28    30    21   ar
    29    28    23   ar
    30    19     7    1
    31    19    13   ar
    32     1     5    1
    33     4     6    1
@<TRIPOS>MOLECULE
*****
 30 33 0 0 0
SMALL
GASTEIGER

@<TRIPOS>ATOM
      1 N          62.6860   87.0993   12.3392 N.am    1  UNL1       -0.2683
      2 C          63.4545   88.1710   13.0540 C.2     1  UNL1        0.3047
      3 O          64.5511   87.7985   14.0073 O.2     1  UNL1       -0.2525
      4 N          63.1265   89.6151   12.8154 N.am    1  UNL1       -0.2863
      5 H          61.9662   87.3438   11.7135 H       1  UNL1        0.1564
      6 H          62.4068   89.8596   12.1898 H       1  UNL1        0.1512
      7 C          63.8951   90.6867   13.5302 C.3     1  UNL1        0.1019
      8 C          63.8664   90.7579   15.0282 C.3     1  UNL1        0.0642
      9 C          64.6351   91.8295   15.7430 C.3     1  UNL1        0.1352
     10 C          65.1942   92.6530   16.8652 C.3     1  UNL1        0.0437
     11 C          64.0320   91.1151   16.9160 C.3     1  UNL1        0.0437
     12 O          65.4323   92.8300   14.9597 O.3     1  UNL1       -0.4827
     13 C          65.4609   92.7588   13.4617 C.ar    1  UNL1        0.1379
     14 C          66.2581   93.7592   12.6784 C.ar    1  UNL1        0.0662
     15 C          66.2867   93.6881   11.1804 C.ar    1  UNL1        0.1431
     16 F          67.0840   94.6886   10.3971 F       1  UNL1       -0.2041
     17 C          65.5182   92.6165   10.4656 C.ar    1  UNL1        0.0296
     18 C          64.7210   91.6160   11.2489 C.ar    1  UNL1        0.0026
     19 C          64.6923   91.6872   12.7469 C.ar    1  UNL1        0.0298
     20 C          62.9428   84.7928    7.4541 C.3     1  UNL1        0.0521
     21 C          63.1246   84.2863    8.8543 C.ar    1  UNL1        0.0594
     22 C          62.9784   85.2239   10.0159 C.ar    1  UNL1        0.0160
     23 C          63.1602   84.7175   11.4161 C.ar    1  UNL1        0.0162
     24 C          63.0140   85.6552   12.5777 C.ar    1  UNL1        0.0516
     25 C          63.1958   85.1487   13.9779 C.ar    1  UNL1        0.0147
     26 C          63.5238   83.7046   14.2164 C.ar    1  UNL1        0.0013
     27 C          63.6700   82.7669   13.0548 C.ar    1  UNL1        0.0016
     28 C          63.4882   83.2734   11.6546 C.ar    1  UNL1        0.0204
     29 C          63.6344   82.3358   10.4930 C.ar    1  UNL1        0.0984
     30 N          63.4526   82.8422    9.0928 N.ar    1  UNL1       -0.2481
@<TRIPOS>BOND
     1    20    21    1
     2    21    22   ar
     3    22    23   ar
     4    23    24   ar
     5    24     1    1
     6     1     2   am
     7     2     3    2
     8     2     4   am
     9     7     4    1
    10     7     8    1
    11     8     9    1
    12     9    10    1
    13     9    11    1
    14     9    12    1
    15    12    13    1
    16    13    14   ar
    17    14    15   ar
    18    15    16    1
    19    15    17   ar
    20    17    18   ar
    21    18    19   ar
    22    24    25   ar
    23    25    26   ar
    24    26    27   ar
    25    27    28   ar
    26    28    29   ar
    27    29    30   ar
    28    30    21   ar
    29    28    23   ar
    30    19     7    1
    31    19    13   ar
    32     1     5    1
    33     4     6    1
@<TRIPOS>MOLECULE
*****
 30 33 0 0 0
SMALL
GASTEIGER

@<TRIPOS>ATOM
      1 N          62.5771   90.1065   13.4742 N.am    1  UNL1       -0.2683
      2 C          62.9623   88.8044   12.8368 C.2     1  UNL1        0.3047
      3 O          64.3166   88.2141   13.0961 O.2     1  UNL1       -0.2525
      4 N          61.9931   88.0927   11.9400 N.am    1  UNL1       -0.2863
      5 H          61.6882   90.4940   13.3040 H       1  UNL1        0.1564
      6 H          61.1042   88.4801   11.7698 H       1  UNL1        0.1512
      7 C          62.3783   86.7907   11.3027 C.3     1  UNL1        0.1019
      8 C          62.3536   86.6503    9.8094 C.3     1  UNL1        0.0642
      9 C          62.7389   85.3482    9.1721 C.3     1  UNL1        0.1352
     10 C          63.0150   84.3264    8.1092 C.3     1  UNL1        0.0437
     11 C          62.4249   86.1550    7.9471 C.3     1  UNL1        0.0437
     12 O          63.1488   84.1865   10.0279 O.3     1  UNL1       -0.4827
     13 C          63.1734   84.3269   11.5211 C.ar    1  UNL1        0.1379
     14 C          63.5833   83.1652   12.3769 C.ar    1  UNL1        0.0662
     15 C          63.6080   83.3056   13.8701 C.ar    1  UNL1        0.1431
     16 F          64.0179   82.1438   14.7260 F       1  UNL1       -0.2041
     17 C          63.2228   84.6076   14.5075 C.ar    1  UNL1        0.0296
     18 C          62.8129   85.7693   13.6517 C.ar    1  UNL1        0.0026
     19 C          62.7882   85.6289   12.1585 C.ar    1  UNL1        0.0298
     20 C          65.9652   92.7705   10.2071 C.3     1  UNL1        0.0521
     21 C          65.8450   92.6383   11.6964 C.ar    1  UNL1        0.0594
     22 C          64.7557   91.7944   12.2890 C.ar    1  UNL1        0.0160
     23 C          64.6356   91.6622   13.7784 C.ar    1  UNL1        0.0162
     24 C          63.5462   90.8182   14.3709 C.ar    1  UNL1        0.0516
     25 C          63.4261   90.6860   15.8603 C.ar    1  UNL1        0.0147
     26 C          64.3953   91.3978   16.7570 C.ar    1  UNL1        0.0013
     27 C          65.4846   92.2417   16.1644 C.ar    1  UNL1        0.0016
     28 C          65.6047   92.3739   14.6751 C.ar    1  UNL1        0.0204
     29 C          66.6940   93.2178   14.0825 C.ar    1  UNL1        0.0984
     30 N          66.8142   93.3500   12.5932 N.ar    1  UNL1       -0.2481
@<TRIPOS>BOND
     1    20    21    1
     2    21    22   ar
     3    22    23   ar
     4    23    24   ar
     5    24     1    1
     6     1     2   am
     7     2     3    2
     8     2     4   am
     9     7     4    1
    10     7     8    1
    11     8     9    1
    12     9    10    1
    13     9    11    1
    14     9    12    1
    15    12    13    1
    16    13    14   ar
    17    14    15   ar
    18    15    16    1
    19    15    17   ar
    20    17    18   ar
    21    18    19   ar
    22    24    25   ar
    23    25    26   ar
    24    26    27   ar
    25    27    28   ar
    26    28    29   ar
    27    29    30   ar
    28    30    21   ar
    29    28    23   ar
    30    19     7    1
    31    19    13   ar
    32     1     5    1
    33     4     6    1
