@<TRIPOS>MOLECULE
*****
 24 27 0 0 0
SMALL
GASTEIGER

@<TRIPOS>ATOM
      1 O          60.9336   89.5744   12.5198 O.2     1  UNL1       -0.2448
      2 C          62.3727   89.3337   12.1720 C.2     1  UNL1        0.3428
      3 C          63.4519   90.1130   12.8634 C.2     1  UNL1        0.0966
      4 C          63.9287   89.9020   14.2698 C.2     1  UNL1        0.1049
      5 N          65.0152   90.8988   14.5453 N.2     1  UNL1       -0.2475
      6 C          65.2098   91.7259   13.3091 C.2     1  UNL1        0.0676
      7 C          66.1420   92.8585   12.9958 C.3     1  UNL1        0.1093
      8 C          66.1080   93.5054   11.6428 C.2     1  UNL1        0.1180
      9 O          67.0402   94.6380   11.3295 O.2     1  UNL1       -0.5094
     10 C          65.1418   93.0198   10.6033 C.2     1  UNL1        0.0439
     11 C          64.2096   91.8871   10.9168 C.2     1  UNL1        0.0617
     12 CL         63.2434   91.4015    9.8773 Cl      1  UNL1       -0.0821
     13 C          64.2436   91.2402   12.2696 C.2     1  UNL1        0.0324
     14 H          67.6438   94.9414   11.9788 H       1  UNL1        0.2917
     15 O          62.7326   88.3135   11.1329 O.3     1  UNL1       -0.4454
     16 C          61.9481   87.0393   11.0293 C.3     1  UNL1        0.2087
     17 C          61.2721   86.6774    9.7401 C.3     1  UNL1        0.0445
     18 C          61.9841   85.8226    8.7340 C.3     1  UNL1        0.0210
     19 C          61.3081   85.4608    7.4448 C.3     1  UNL1        0.0722
     20 N          59.9200   85.9538    7.1618 N.3     1  UNL1       -0.2727
     21 C          59.2079   86.8086    8.1679 C.3     1  UNL1        0.0722
     22 C          59.8840   87.1704    9.4570 C.3     1  UNL1        0.0210
     23 C          60.2497   86.1781    7.8821 C.3     1  UNL1        0.0722
     24 C          60.8608   86.5054    9.0478 C.3     1  UNL1        0.0210
@<TRIPOS>BOND
     1     1     2    2
     2     2    15    1
     3    15    16    1
     4    16    17    1
     5    17    18    1
     6    18    19    1
     7    19    20    1
     8    20    21    1
     9    21    22    1
    10    20    23    1
    11    23    24    1
    12     2     3    1
    13     3     4    2
    14     4     5    1
    15     5     6    2
    16     6     7    1
    17     7     8    1
    18     8     9    1
    19     8    10    2
    20    10    11    1
    21    11    12    1
    22    11    13    2
    23    22    17    1
    24    13     3    1
    25    24    17    1
    26    13     6    1
    27     9    14    1
@<TRIPOS>MOLECULE
*****
 24 27 0 0 0
SMALL
GASTEIGER

@<TRIPOS>ATOM
      1 O          60.8979   89.6003   12.6891 O.2     1  UNL1       -0.2448
      2 C          62.1760   89.3022   11.9627 C.2     1  UNL1        0.3428
      3 C          63.1068   90.4190   11.5933 C.2     1  UNL1        0.0966
      4 C          63.0959   91.1859   10.3042 C.2     1  UNL1        0.1049
      5 N          64.1943   92.2058   10.3624 N.2     1  UNL1       -0.2475
      6 C          64.8840   92.0693   11.6874 C.2     1  UNL1        0.0676
      7 C          66.0371   92.8078   12.2994 C.3     1  UNL1        0.1093
      8 C          66.5183   92.4421   13.6724 C.2     1  UNL1        0.1180
      9 O          67.6714   93.1806   14.2844 O.2     1  UNL1       -0.5094
     10 C          65.8462   91.3378   14.4331 C.2     1  UNL1        0.0439
     11 C          64.6929   90.5992   13.8210 C.2     1  UNL1        0.0617
     12 CL         64.0208   89.4949   14.5818 Cl      1  UNL1       -0.0821
     13 C          64.2119   90.9649   12.4481 C.2     1  UNL1        0.0324
     14 H          68.0913   93.8705   13.8092 H       1  UNL1        0.2917
     15 O          62.5234   87.8873   11.6058 O.3     1  UNL1       -0.4454
     16 C          61.4485   86.9407   11.1601 C.3     1  UNL1        0.2087
     17 C          61.4729   86.3793    9.7693 C.3     1  UNL1        0.0445
     18 C          60.2594   86.4896    8.8946 C.3     1  UNL1        0.0210
     19 C          60.2839   85.9282    7.5038 C.3     1  UNL1        0.0722
     20 N          61.5219   85.2566    6.9878 N.3     1  UNL1       -0.2727
     21 C          62.7354   85.1463    7.8626 C.3     1  UNL1        0.0722
     22 C          62.7109   85.7077    9.2533 C.3     1  UNL1        0.0210
     23 C          61.5560   85.5490    7.7567 C.3     1  UNL1        0.0722
     24 C          61.5340   86.0565    9.0143 C.3     1  UNL1        0.0210
@<TRIPOS>BOND
     1     1     2    2
     2     2    15    1
     3    15    16    1
     4    16    17    1
     5    17    18    1
     6    18    19    1
     7    19    20    1
     8    20    21    1
     9    21    22    1
    10    20    23    1
    11    23    24    1
    12     2     3    1
    13     3     4    2
    14     4     5    1
    15     5     6    2
    16     6     7    1
    17     7     8    1
    18     8     9    1
    19     8    10    2
    20    10    11    1
    21    11    12    1
    22    11    13    2
    23    22    17    1
    24    13     3    1
    25    24    17    1
    26    13     6    1
    27     9    14    1
@<TRIPOS>MOLECULE
*****
 24 27 0 0 0
SMALL
GASTEIGER

@<TRIPOS>ATOM
      1 O          60.7698   89.4389   12.2761 O.2     1  UNL1       -0.2448
      2 C          62.2040   89.0837   12.0177 C.2     1  UNL1        0.3428
      3 C          63.2977   89.7922   12.7607 C.2     1  UNL1        0.0966
      4 C          63.7801   89.4649   14.1427 C.2     1  UNL1        0.1049
      5 N          64.8815   90.4228   14.4881 N.2     1  UNL1       -0.2475
      6 C          65.0798   91.3421   13.3196 C.2     1  UNL1        0.0676
      7 C          66.0252   92.4837   13.0898 C.3     1  UNL1        0.1093
      8 C          65.9917   93.2357   11.7922 C.2     1  UNL1        0.1180
      9 O          66.9371   94.3773   11.5624 O.2     1  UNL1       -0.5094
     10 C          65.0128   92.8460   10.7246 C.2     1  UNL1        0.0439
     11 C          64.0674   91.7043   10.9545 C.2     1  UNL1        0.0617
     12 CL         63.0885   91.3146    9.8868 Cl      1  UNL1       -0.0821
     13 C          64.1009   90.9524   12.2519 C.2     1  UNL1        0.0324
     14 H          67.5486   94.6208   12.2294 H       1  UNL1        0.2917
     15 O          62.5446   88.0201   11.0164 O.3     1  UNL1       -0.4454
     16 C          61.7559   86.7446   10.9794 C.3     1  UNL1        0.2087
     17 C          62.4583   85.4248   11.1003 C.3     1  UNL1        0.0445
     18 C          63.0655   84.7844    9.8874 C.3     1  UNL1        0.0210
     19 C          63.7679   83.4645   10.0085 C.3     1  UNL1        0.0722
     20 N          63.8630   82.7851   11.3424 N.3     1  UNL1       -0.2727
     21 C          63.2558   83.4255   12.5553 C.3     1  UNL1        0.0722
     22 C          62.5534   84.7454   12.4342 C.3     1  UNL1        0.0210
     23 C          63.4683   83.5074   11.3255 C.3     1  UNL1        0.0722
     24 C          62.8332   84.7009   11.2161 C.3     1  UNL1        0.0210
@<TRIPOS>BOND
     1     1     2    2
     2     2    15    1
     3    15    16    1
     4    16    17    1
     5    17    18    1
     6    18    19    1
     7    19    20    1
     8    20    21    1
     9    21    22    1
    10    20    23    1
    11    23    24    1
    12     2     3    1
    13     3     4    2
    14     4     5    1
    15     5     6    2
    16     6     7    1
    17     7     8    1
    18     8     9    1
    19     8    10    2
    20    10    11    1
    21    11    12    1
    22    11    13    2
    23    22    17    1
    24    13     3    1
    25    24    17    1
    26    13     6    1
    27     9    14    1
@<TRIPOS>MOLECULE
*****
 24 27 0 0 0
SMALL
GASTEIGER

@<TRIPOS>ATOM
      1 O          60.7351   89.1935   12.2203 O.2     1  UNL1       -0.2448
      2 C          62.1918   89.0030   11.9172 C.2     1  UNL1        0.3428
      3 C          63.0552   90.1901   11.6085 C.2     1  UNL1        0.0966
      4 C          63.0556   90.9708   10.3277 C.2     1  UNL1        0.1049
      5 N          64.0705   92.0680   10.4541 N.2     1  UNL1       -0.2475
      6 C          64.6973   91.9655   11.8130 C.2     1  UNL1        0.0676
      7 C          65.7583   92.7791   12.4928 C.3     1  UNL1        0.1093
      8 C          66.1920   92.4320   13.8862 C.2     1  UNL1        0.1180
      9 O          67.2530   93.2455   14.5661 O.2     1  UNL1       -0.5094
     10 C          65.5645   91.2713   14.5998 C.2     1  UNL1        0.0439
     11 C          64.5034   90.4577   13.9198 C.2     1  UNL1        0.0617
     12 CL         63.8759   89.2970   14.6333 Cl      1  UNL1       -0.0821
     13 C          64.0698   90.8048   12.5265 C.2     1  UNL1        0.0324
     14 H          67.6450   93.9706   14.1204 H       1  UNL1        0.2917
     15 O          62.7850   87.6253   11.9229 O.3     1  UNL1       -0.4454
     16 C          62.0652   86.4959   11.2472 C.3     1  UNL1        0.2087
     17 C          62.6597   85.1188   11.2508 C.3     1  UNL1        0.0445
     18 C          63.2871   84.5693   10.0040 C.3     1  UNL1        0.0210
     19 C          63.8815   83.1922   10.0077 C.3     1  UNL1        0.0722
     20 N          63.8486   82.3644   11.2582 N.3     1  UNL1       -0.2727
     21 C          63.2212   82.9138   12.5050 C.3     1  UNL1        0.0722
     22 C          62.6267   84.2910   12.5013 C.3     1  UNL1        0.0210
     23 C          63.5101   83.1135   11.3046 C.3     1  UNL1        0.0722
     24 C          62.9725   84.3588   11.3014 C.3     1  UNL1        0.0210
@<TRIPOS>BOND
     1     1     2    2
     2     2    15    1
     3    15    16    1
     4    16    17    1
     5    17    18    1
     6    18    19    1
     7    19    20    1
     8    20    21    1
     9    21    22    1
    10    20    23    1
    11    23    24    1
    12     2     3    1
    13     3     4    2
    14     4     5    1
    15     5     6    2
    16     6     7    1
    17     7     8    1
    18     8     9    1
    19     8    10    2
    20    10    11    1
    21    11    12    1
    22    11    13    2
    23    22    17    1
    24    13     3    1
    25    24    17    1
    26    13     6    1
    27     9    14    1
@<TRIPOS>MOLECULE
*****
 24 27 0 0 0
SMALL
GASTEIGER

@<TRIPOS>ATOM
      1 O          63.3904   88.3968   12.6522 O.2     1  UNL1       -0.2448
      2 C          62.9302   89.7160   12.1066 C.2     1  UNL1        0.3428
      3 C          63.8869   90.8684   12.0243 C.2     1  UNL1        0.0966
      4 C          64.2273   91.6450   10.7869 C.2     1  UNL1        0.1049
      5 N          65.2219   92.7031   11.1628 N.2     1  UNL1       -0.2475
      6 C          65.4961   92.5804   12.6325 C.2     1  UNL1        0.0676
      7 C          66.3905   93.3547   13.5546 C.3     1  UNL1        0.1093
      8 C          66.4599   92.9952   15.0093 C.2     1  UNL1        0.1180
      9 O          67.3543   93.7695   15.9315 O.2     1  UNL1       -0.5094
     10 C          65.6348   91.8612   15.5417 C.2     1  UNL1        0.0439
     11 C          64.7403   91.0869   14.6194 C.2     1  UNL1        0.0617
     12 CL         63.9152   89.9530   15.1518 Cl      1  UNL1       -0.0821
     13 C          64.6710   91.4465   13.1649 C.2     1  UNL1        0.0324
     14 H          67.8697   94.4778   15.5989 H       1  UNL1        0.2917
     15 O          61.5134   89.8829   11.6433 O.3     1  UNL1       -0.4454
     16 C          61.1988   89.8821   10.1766 C.3     1  UNL1        0.2087
     17 C          60.9208   88.5886    9.4699 C.3     1  UNL1        0.0445
     18 C          61.8994   87.4559    9.5662 C.3     1  UNL1        0.0210
     19 C          61.6213   86.1624    8.8595 C.3     1  UNL1        0.0722
     20 N          60.3647   86.0016    8.0563 N.3     1  UNL1       -0.2727
     21 C          59.3861   87.1343    7.9599 C.3     1  UNL1        0.0722
     22 C          59.6642   88.4278    8.6667 C.3     1  UNL1        0.0210
     23 C          60.4737   86.7291    8.4261 C.3     1  UNL1        0.0722
     24 C          60.7250   87.8988    9.0651 C.3     1  UNL1        0.0210
@<TRIPOS>BOND
     1     1     2    2
     2     2    15    1
     3    15    16    1
     4    16    17    1
     5    17    18    1
     6    18    19    1
     7    19    20    1
     8    20    21    1
     9    21    22    1
    10    20    23    1
    11    23    24    1
    12     2     3    1
    13     3     4    2
    14     4     5    1
    15     5     6    2
    16     6     7    1
    17     7     8    1
    18     8     9    1
    19     8    10    2
    20    10    11    1
    21    11    12    1
    22    11    13    2
    23    22    17    1
    24    13     3    1
    25    24    17    1
    26    13     6    1
    27     9    14    1
@<TRIPOS>MOLECULE
*****
 24 27 0 0 0
SMALL
GASTEIGER

@<TRIPOS>ATOM
      1 O          62.3346   89.7905   15.4431 O.2     1  UNL1       -0.2448
      2 C          63.5814   89.6303   14.6247 C.2     1  UNL1        0.3428
      3 C          64.4669   90.8134   14.3673 C.2     1  UNL1        0.0966
      4 C          65.3158   91.5171   15.3843 C.2     1  UNL1        0.1049
      5 N          66.0324   92.6391   14.6933 N.2     1  UNL1       -0.2475
      6 C          65.6265   92.6288   13.2493 C.2     1  UNL1        0.0676
      7 C          66.0129   93.5012   12.0919 C.3     1  UNL1        0.1093
      8 C          65.4318   93.2451   10.7329 C.2     1  UNL1        0.1180
      9 O          65.8182   94.1175    9.5755 O.2     1  UNL1       -0.5094
     10 C          64.4642   92.1168   10.5314 C.2     1  UNL1        0.0439
     11 C          64.0778   91.2444   11.6889 C.2     1  UNL1        0.0617
     12 CL         63.1102   90.1161   11.4875 Cl      1  UNL1       -0.0821
     13 C          64.6589   91.5005   13.0478 C.2     1  UNL1        0.0324
     14 H          66.4226   94.8223    9.7013 H       1  UNL1        0.2917
     15 O          63.9427   88.2869   14.0635 O.3     1  UNL1       -0.4454
     16 C          64.6654   87.2873   14.9170 C.3     1  UNL1        0.2087
     17 C          64.1876   85.8667   14.9759 C.3     1  UNL1        0.0445
     18 C          63.0983   85.4807   15.9321 C.3     1  UNL1        0.0210
     19 C          62.6206   84.0600   15.9909 C.3     1  UNL1        0.0722
     20 N          63.2321   83.0254   15.0934 N.3     1  UNL1       -0.2727
     21 C          64.3213   83.4113   14.1371 C.3     1  UNL1        0.0722
     22 C          64.7991   84.8320   14.0783 C.3     1  UNL1        0.0210
     23 C          63.5268   83.7911   15.0252 C.3     1  UNL1        0.0722
     24 C          63.9589   85.0756   14.9720 C.3     1  UNL1        0.0210
@<TRIPOS>BOND
     1     1     2    2
     2     2    15    1
     3    15    16    1
     4    16    17    1
     5    17    18    1
     6    18    19    1
     7    19    20    1
     8    20    21    1
     9    21    22    1
    10    20    23    1
    11    23    24    1
    12     2     3    1
    13     3     4    2
    14     4     5    1
    15     5     6    2
    16     6     7    1
    17     7     8    1
    18     8     9    1
    19     8    10    2
    20    10    11    1
    21    11    12    1
    22    11    13    2
    23    22    17    1
    24    13     3    1
    25    24    17    1
    26    13     6    1
    27     9    14    1
@<TRIPOS>MOLECULE
*****
 24 27 0 0 0
SMALL
GASTEIGER

@<TRIPOS>ATOM
      1 O          62.2339   85.7503   12.3474 O.2     1  UNL1       -0.2448
      2 C          63.1564   84.8996   13.1692 C.2     1  UNL1        0.3428
      3 C          62.8033   83.4700   13.4547 C.2     1  UNL1        0.0966
      4 C          62.3069   82.9287   14.7626 C.2     1  UNL1        0.1049
      5 N          62.0815   81.4548   14.5985 N.2     1  UNL1       -0.2475
      6 C          62.4385   81.0852   13.1893 C.2     1  UNL1        0.0676
      7 C          62.4150   79.7755   12.4585 C.3     1  UNL1        0.1093
      8 C          62.8377   79.7113   11.0207 C.2     1  UNL1        0.1180
      9 O          62.8142   78.4016   10.2899 O.2     1  UNL1       -0.5094
     10 C          63.2838   80.9567   10.3137 C.2     1  UNL1        0.0439
     11 C          63.3073   82.2665   11.0446 C.2     1  UNL1        0.0617
     12 CL         63.7534   83.5119   10.3377 Cl      1  UNL1       -0.0821
     13 C          62.8846   82.3307   12.4824 C.2     1  UNL1        0.0324
     14 H          62.5355   77.6236   10.7315 H       1  UNL1        0.2917
     15 O          64.4320   85.4786   13.7056 O.3     1  UNL1       -0.4454
     16 C          64.4562   86.1072   15.0673 C.3     1  UNL1        0.2087
     17 C          64.0728   87.5475   15.2354 C.3     1  UNL1        0.0445
     18 C          63.3932   88.0009   16.4934 C.3     1  UNL1        0.0210
     19 C          63.0098   89.4413   16.6614 C.3     1  UNL1        0.0722
     20 N          63.3060   90.4283   15.5714 N.3     1  UNL1       -0.2727
     21 C          63.9855   89.9749   14.3134 C.3     1  UNL1        0.0722
     22 C          64.3689   88.5345   14.1454 C.3     1  UNL1        0.0210
     23 C          63.5349   89.6495   15.4338 C.3     1  UNL1        0.0722
     24 C          63.8817   88.3471   15.2818 C.3     1  UNL1        0.0210
@<TRIPOS>BOND
     1     1     2    2
     2     2    15    1
     3    15    16    1
     4    16    17    1
     5    17    18    1
     6    18    19    1
     7    19    20    1
     8    20    21    1
     9    21    22    1
    10    20    23    1
    11    23    24    1
    12     2     3    1
    13     3     4    2
    14     4     5    1
    15     5     6    2
    16     6     7    1
    17     7     8    1
    18     8     9    1
    19     8    10    2
    20    10    11    1
    21    11    12    1
    22    11    13    2
    23    22    17    1
    24    13     3    1
    25    24    17    1
    26    13     6    1
    27     9    14    1
@<TRIPOS>MOLECULE
*****
 24 27 0 0 0
SMALL
GASTEIGER

@<TRIPOS>ATOM
      1 O          63.5240   91.4541   14.2751 O.2     1  UNL1       -0.2448
      2 C          63.8820   90.7545   12.9975 C.2     1  UNL1        0.3428
      3 C          63.5834   89.2938   12.8331 C.2     1  UNL1        0.0966
      4 C          64.0214   88.1950   13.7555 C.2     1  UNL1        0.1049
      5 N          63.5030   86.8975   13.2099 N.2     1  UNL1       -0.2475
      6 C          62.7446   87.1943   11.9502 C.2     1  UNL1        0.0676
      7 C          62.0153   86.3074   10.9851 C.3     1  UNL1        0.1093
      8 C          61.3356   86.9014    9.7871 C.2     1  UNL1        0.1180
      9 O          60.6062   86.0145    8.8221 O.2     1  UNL1       -0.5094
     10 C          61.3852   88.3824    9.5542 C.2     1  UNL1        0.0439
     11 C          62.1146   89.2694   10.5194 C.2     1  UNL1        0.0617
     12 CL         62.1643   90.7503   10.2865 Cl      1  UNL1       -0.0821
     13 C          62.7943   88.6753   11.7173 C.2     1  UNL1        0.0324
     14 H          60.5752   85.0894    8.9676 H       1  UNL1        0.2917
     15 O          64.5385   91.5157   11.8842 O.3     1  UNL1       -0.4454
     16 C          65.5712   92.5583   12.1954 C.3     1  UNL1        0.2087
     17 C          66.3860   93.1605   11.0893 C.3     1  UNL1        0.0445
     18 C          67.4090   92.3294   10.3732 C.3     1  UNL1        0.0210
     19 C          68.2237   92.9316    9.2672 C.3     1  UNL1        0.0722
     20 N          68.0156   94.3650    8.8772 N.3     1  UNL1       -0.2727
     21 C          66.9926   95.1961    9.5933 C.3     1  UNL1        0.0722
     22 C          66.1778   94.5938   10.6993 C.3     1  UNL1        0.0210
     23 C          67.5453   94.0790    9.4895 C.3     1  UNL1        0.0722
     24 C          66.8085   93.5345   10.4896 C.3     1  UNL1        0.0210
@<TRIPOS>BOND
     1     1     2    2
     2     2    15    1
     3    15    16    1
     4    16    17    1
     5    17    18    1
     6    18    19    1
     7    19    20    1
     8    20    21    1
     9    21    22    1
    10    20    23    1
    11    23    24    1
    12     2     3    1
    13     3     4    2
    14     4     5    1
    15     5     6    2
    16     6     7    1
    17     7     8    1
    18     8     9    1
    19     8    10    2
    20    10    11    1
    21    11    12    1
    22    11    13    2
    23    22    17    1
    24    13     3    1
    25    24    17    1
    26    13     6    1
    27     9    14    1
@<TRIPOS>MOLECULE
*****
 24 27 0 0 0
SMALL
GASTEIGER

@<TRIPOS>ATOM
      1 O          61.5075   89.7571   12.4508 O.2     1  UNL1       -0.2448
      2 C          62.3568   88.9942   11.4778 C.2     1  UNL1        0.3428
      3 C          62.4214   87.4974   11.5515 C.2     1  UNL1        0.0966
      4 C          61.7959   86.5390   10.5818 C.2     1  UNL1        0.1049
      5 N          62.1108   85.1455   11.0389 N.2     1  UNL1       -0.2475
      6 C          62.9309   85.2426   12.2911 C.2     1  UNL1        0.0676
      7 C          63.5276   84.1953   13.1838 C.3     1  UNL1        0.1093
      8 C          64.3164   84.6015   14.3934 C.2     1  UNL1        0.1180
      9 O          64.9132   83.5541   15.2860 O.2     1  UNL1       -0.5094
     10 C          64.5084   86.0550   14.7102 C.2     1  UNL1        0.0439
     11 C          63.9116   87.1024   13.8174 C.2     1  UNL1        0.0617
     12 CL         64.1035   88.5559   14.1342 Cl      1  UNL1       -0.0821
     13 C          63.1228   86.6962   12.6079 C.2     1  UNL1        0.0324
     14 H          64.7933   82.6462   15.0881 H       1  UNL1        0.2917
     15 O          63.1414   89.7281   10.4310 O.3     1  UNL1       -0.4454
     16 C          63.2713   91.2209   10.5001 C.3     1  UNL1        0.2087
     17 C          64.4472   91.8399   11.1957 C.3     1  UNL1        0.0445
     18 C          65.4650   92.6097   10.4074 C.3     1  UNL1        0.0210
     19 C          66.6409   93.2288   11.1031 C.3     1  UNL1        0.0722
     20 N          66.7990   93.0780   12.5872 N.3     1  UNL1       -0.2727
     21 C          65.7811   92.3082   13.3755 C.3     1  UNL1        0.0722
     22 C          64.6052   91.6892   12.6798 C.3     1  UNL1        0.0210
     23 C          66.1381   92.7210   12.2501 C.3     1  UNL1        0.0722
     24 C          65.0748   92.1612   11.6211 C.3     1  UNL1        0.0210
@<TRIPOS>BOND
     1     1     2    2
     2     2    15    1
     3    15    16    1
     4    16    17    1
     5    17    18    1
     6    18    19    1
     7    19    20    1
     8    20    21    1
     9    21    22    1
    10    20    23    1
    11    23    24    1
    12     2     3    1
    13     3     4    2
    14     4     5    1
    15     5     6    2
    16     6     7    1
    17     7     8    1
    18     8     9    1
    19     8    10    2
    20    10    11    1
    21    11    12    1
    22    11    13    2
    23    22    17    1
    24    13     3    1
    25    24    17    1
    26    13     6    1
    27     9    14    1
