@<TRIPOS>MOLECULE
*****
 25 28 0 0 0
SMALL
GASTEIGER

@<TRIPOS>ATOM
      1 C          66.1142   93.6352   12.3277 C.2     1  UNL1        0.2252
      2 O          66.6164   93.8417   13.7260 O.2     1  UNL1       -0.2749
      3 N          65.1255   92.5446   12.0394 N.am    1  UNL1       -0.2784
      4 C          64.4329   91.4969   12.8594 C.3     1  UNL1        0.1044
      5 C          63.7273   91.0023   11.6315 C.3     1  UNL1        0.1187
      6 C          64.4199   92.0501   10.8115 C.3     1  UNL1        0.1044
      7 C          67.8347   92.4984   10.1488 C.3     1  UNL1        0.0005
      8 C          67.4608   93.9509   10.1284 C.3     1  UNL1        0.0086
      9 C          67.9472   94.8350    9.0186 C.3     1  UNL1        0.0005
     10 C          67.5733   96.2876    8.9982 C.3     1  UNL1        0.0000
     11 C          66.7131   96.8560   10.0876 C.3     1  UNL1        0.0005
     12 C          66.2267   95.9718   11.1974 C.3     1  UNL1        0.0091
     13 C          66.6006   94.5193   11.2178 C.3     1  UNL1        0.0767
     14 C          62.7386   89.9117   11.3432 C.ar    1  UNL1        0.2395
     15 N          62.5951   89.1721   10.0462 N.ar    1  UNL1       -0.1907
     16 C          61.4877   88.1725   10.2026 C.ar    1  UNL1        0.2033
     17 N          60.9468   88.2944   11.5963 N.ar    1  UNL1       -0.0560
     18 O          61.7199   89.3692   12.3013 O.2     1  UNL1       -0.3369
     19 C          61.0058   87.2186    9.1501 C.ar    1  UNL1        0.0413
     20 C          59.5648   87.2270    8.7334 C.ar    1  UNL1        0.0033
     21 C          59.0830   86.2731    7.6809 C.ar    1  UNL1        0.0024
     22 C          60.0420   85.3107    7.0450 C.ar    1  UNL1        0.0296
     23 C          61.4830   85.3023    7.4618 C.ar    1  UNL1        0.1402
     24 F          62.4420   84.3401    6.8260 F       1  UNL1       -0.2042
     25 C          61.9648   86.2563    8.5143 C.ar    1  UNL1        0.0328
@<TRIPOS>BOND
     1     7     8    1
     2     8     9    1
     3     9    10    1
     4    10    11    1
     5    11    12    1
     6    12    13    1
     7    13     1    1
     8     1     2    2
     9     1     3   am
    10     3     4    1
    11     4     5    1
    12     5    14    1
    13    14    15   ar
    14    15    16   ar
    15    16    19    1
    16    19    20   ar
    17    20    21   ar
    18    21    22   ar
    19    22    23   ar
    20    23    24    1
    21    23    25   ar
    22    16    17   ar
    23    17    18   ar
    24     5     6    1
    25    13     8    1
    26     6     3    1
    27    18    14   ar
    28    25    19   ar
@<TRIPOS>MOLECULE
*****
 25 28 0 0 0
SMALL
GASTEIGER

@<TRIPOS>ATOM
      1 C          64.3019   91.2117   15.5584 C.2     1  UNL1        0.2252
      2 O          63.8082   92.0531   16.6978 O.2     1  UNL1       -0.2749
      3 N          64.0059   89.7416   15.5283 N.am    1  UNL1       -0.2784
      4 C          63.2725   88.7888   16.4251 C.3     1  UNL1        0.1044
      5 C          63.5871   87.6624   15.4858 C.3     1  UNL1        0.1187
      6 C          64.3205   88.6153   14.5890 C.3     1  UNL1        0.1044
      7 C          66.8418   92.6851   16.1735 C.3     1  UNL1        0.0005
      8 C          66.3617   92.5773   14.7566 C.3     1  UNL1        0.0086
      9 C          67.1515   93.2061   13.6472 C.3     1  UNL1        0.0005
     10 C          66.6714   93.0982   12.2302 C.3     1  UNL1        0.0000
     11 C          65.4015   92.3615   11.9226 C.3     1  UNL1        0.0005
     12 C          64.6117   91.7327   13.0320 C.3     1  UNL1        0.0091
     13 C          65.0918   91.8406   14.4489 C.3     1  UNL1        0.0767
     14 C          63.2910   86.1922   15.4558 C.ar    1  UNL1        0.2395
     15 N          63.3191   85.3118   14.2418 N.ar    1  UNL1       -0.1907
     16 C          62.9603   83.9198   14.6702 C.ar    1  UNL1        0.2033
     17 N          62.7105   83.9399   16.1490 N.ar    1  UNL1       -0.0560
     18 O          62.9149   85.3443   16.6346 O.2     1  UNL1       -0.3369
     19 C          62.8676   82.7186   13.7766 C.ar    1  UNL1        0.0413
     20 C          62.2887   81.4375   14.2998 C.ar    1  UNL1        0.0033
     21 C          62.1960   80.2363   13.4062 C.ar    1  UNL1        0.0024
     22 C          62.6822   80.3162   11.9894 C.ar    1  UNL1        0.0296
     23 C          63.2611   81.5973   11.4662 C.ar    1  UNL1        0.1402
     24 F          63.7473   81.6772   10.0494 F       1  UNL1       -0.2042
     25 C          63.3538   82.7985   12.3597 C.ar    1  UNL1        0.0328
@<TRIPOS>BOND
     1     7     8    1
     2     8     9    1
     3     9    10    1
     4    10    11    1
     5    11    12    1
     6    12    13    1
     7    13     1    1
     8     1     2    2
     9     1     3   am
    10     3     4    1
    11     4     5    1
    12     5    14    1
    13    14    15   ar
    14    15    16   ar
    15    16    19    1
    16    19    20   ar
    17    20    21   ar
    18    21    22   ar
    19    22    23   ar
    20    23    24    1
    21    23    25   ar
    22    16    17   ar
    23    17    18   ar
    24     5     6    1
    25    13     8    1
    26     6     3    1
    27    18    14   ar
    28    25    19   ar
@<TRIPOS>MOLECULE
*****
 25 28 0 0 0
SMALL
GASTEIGER

@<TRIPOS>ATOM
      1 C          64.2350   91.2174   15.3507 C.2     1  UNL1        0.2252
      2 O          63.5517   91.9324   16.4784 O.2     1  UNL1       -0.2749
      3 N          64.1440   89.7240   15.2448 N.am    1  UNL1       -0.2784
      4 C          63.4845   88.6420   16.0475 C.3     1  UNL1        0.1044
      5 C          64.0153   87.6119   15.0950 C.3     1  UNL1        0.1187
      6 C          64.6748   88.6939   14.2923 C.3     1  UNL1        0.1044
      7 C          66.6765   92.7558   16.1710 C.3     1  UNL1        0.0005
      8 C          66.2302   92.7651   14.7389 C.3     1  UNL1        0.0086
      9 C          67.0045   93.5436   13.7171 C.3     1  UNL1        0.0005
     10 C          66.5582   93.5530   12.2851 C.3     1  UNL1        0.0000
     11 C          65.3375   92.7839   11.8749 C.3     1  UNL1        0.0005
     12 C          64.5632   92.0054   12.8968 C.3     1  UNL1        0.0091
     13 C          65.0095   91.9960   14.3288 C.3     1  UNL1        0.0767
     14 C          63.9242   86.1183   14.9892 C.ar    1  UNL1        0.2395
     15 N          63.6351   85.3390   13.7406 N.ar    1  UNL1       -0.1907
     16 C          63.6385   83.8810   14.0930 C.ar    1  UNL1        0.2033
     17 N          63.9296   83.7593   15.5594 N.ar    1  UNL1       -0.0560
     18 O          64.1062   85.1420   16.1133 O.2     1  UNL1       -0.3369
     19 C          63.3937   82.7443   13.1454 C.ar    1  UNL1        0.0413
     20 C          63.7354   82.8923   11.6924 C.ar    1  UNL1        0.0033
     21 C          63.4906   81.7556   10.7448 C.ar    1  UNL1        0.0024
     22 C          62.9040   80.4708   11.2502 C.ar    1  UNL1        0.0296
     23 C          62.5623   80.3228   12.7033 C.ar    1  UNL1        0.1402
     24 F          61.9757   79.0381   13.2087 F       1  UNL1       -0.2042
     25 C          62.8071   81.4595   13.6509 C.ar    1  UNL1        0.0328
@<TRIPOS>BOND
     1     7     8    1
     2     8     9    1
     3     9    10    1
     4    10    11    1
     5    11    12    1
     6    12    13    1
     7    13     1    1
     8     1     2    2
     9     1     3   am
    10     3     4    1
    11     4     5    1
    12     5    14    1
    13    14    15   ar
    14    15    16   ar
    15    16    19    1
    16    19    20   ar
    17    20    21   ar
    18    21    22   ar
    19    22    23   ar
    20    23    24    1
    21    23    25   ar
    22    16    17   ar
    23    17    18   ar
    24     5     6    1
    25    13     8    1
    26     6     3    1
    27    18    14   ar
    28    25    19   ar
@<TRIPOS>MOLECULE
*****
 25 28 0 0 0
SMALL
GASTEIGER

@<TRIPOS>ATOM
      1 C          65.1700   91.4036   13.5974 C.2     1  UNL1        0.2252
      2 O          64.4497   92.2698   12.6070 O.2     1  UNL1       -0.2749
      3 N          64.6951   90.0042   13.8548 N.am    1  UNL1       -0.2784
      4 C          63.5773   89.1507   13.3333 C.3     1  UNL1        0.1044
      5 C          64.0235   88.0252   14.2189 C.3     1  UNL1        0.1187
      6 C          65.1413   88.8788   14.7404 C.3     1  UNL1        0.1044
      7 C          64.8936   92.3473   16.4317 C.3     1  UNL1        0.0005
      8 C          66.2270   92.4086   15.7474 C.3     1  UNL1        0.0086
      9 C          67.4222   92.9418   16.4803 C.3     1  UNL1        0.0005
     10 C          68.7557   93.0031   15.7961 C.3     1  UNL1        0.0000
     11 C          68.8939   92.5312   14.3790 C.3     1  UNL1        0.0005
     12 C          67.6987   91.9981   13.6461 C.3     1  UNL1        0.0091
     13 C          66.3652   91.9368   14.3303 C.3     1  UNL1        0.0767
     14 C          63.5486   86.6258   14.4763 C.ar    1  UNL1        0.2395
     15 N          63.5496   85.4985   13.4870 N.ar    1  UNL1       -0.1907
     16 C          62.9909   84.2841   14.1674 C.ar    1  UNL1        0.2033
     17 N          62.6446   84.6609   15.5774 N.ar    1  UNL1       -0.0560
     18 O          62.9892   86.1082   15.7683 O.2     1  UNL1       -0.3369
     19 C          62.8103   82.9304   13.5469 C.ar    1  UNL1        0.0413
     20 C          62.2498   81.8014   14.3600 C.ar    1  UNL1        0.0033
     21 C          62.0692   80.4478   13.7395 C.ar    1  UNL1        0.0024
     22 C          62.4490   80.2232   12.3058 C.ar    1  UNL1        0.0296
     23 C          63.0095   81.3522   11.4927 C.ar    1  UNL1        0.1402
     24 F          63.3893   81.1277   10.0590 F       1  UNL1       -0.2042
     25 C          63.1901   82.7058   12.1132 C.ar    1  UNL1        0.0328
@<TRIPOS>BOND
     1     7     8    1
     2     8     9    1
     3     9    10    1
     4    10    11    1
     5    11    12    1
     6    12    13    1
     7    13     1    1
     8     1     2    2
     9     1     3   am
    10     3     4    1
    11     4     5    1
    12     5    14    1
    13    14    15   ar
    14    15    16   ar
    15    16    19    1
    16    19    20   ar
    17    20    21   ar
    18    21    22   ar
    19    22    23   ar
    20    23    24    1
    21    23    25   ar
    22    16    17   ar
    23    17    18   ar
    24     5     6    1
    25    13     8    1
    26     6     3    1
    27    18    14   ar
    28    25    19   ar
@<TRIPOS>MOLECULE
*****
 25 28 0 0 0
SMALL
GASTEIGER

@<TRIPOS>ATOM
      1 C          63.9682   83.1564   14.3879 C.2     1  UNL1        0.2252
      2 O          64.1652   82.2986   15.6025 O.2     1  UNL1       -0.2749
      3 N          63.9969   84.6509   14.5125 N.am    1  UNL1       -0.2784
      4 C          64.1897   85.6175   15.6433 C.3     1  UNL1        0.1044
      5 C          64.0374   86.7645   14.6887 C.3     1  UNL1        0.1187
      6 C          63.8447   85.7980   13.5580 C.3     1  UNL1        0.1044
      7 C          61.8838   81.0218   14.0738 C.3     1  UNL1        0.0005
      8 C          62.7004   81.4524   12.8915 C.3     1  UNL1        0.0086
      9 C          62.4748   80.8157   11.5523 C.3     1  UNL1        0.0005
     10 C          63.2915   81.2463   10.3700 C.3     1  UNL1        0.0000
     11 C          64.3337   82.3136   10.5270 C.3     1  UNL1        0.0005
     12 C          64.5592   82.9503   11.8663 C.3     1  UNL1        0.0091
     13 C          63.7426   82.5197   13.0485 C.3     1  UNL1        0.0767
     14 C          64.0661   88.2591   14.8134 C.ar    1  UNL1        0.2395
     15 N          64.9214   89.1945   14.0113 N.ar    1  UNL1       -0.1907
     16 C          64.6285   90.5941   14.4643 C.ar    1  UNL1        0.2033
     17 N          63.5921   90.5238   15.5463 N.ar    1  UNL1       -0.0560
     18 O          63.2445   89.0807   15.7621 O.2     1  UNL1       -0.3369
     19 C          65.2609   91.8446   13.9291 C.ar    1  UNL1        0.0413
     20 C          66.1432   92.6760   14.8124 C.ar    1  UNL1        0.0033
     21 C          66.7756   93.9265   14.2772 C.ar    1  UNL1        0.0024
     22 C          66.5257   94.3455   12.8587 C.ar    1  UNL1        0.0296
     23 C          65.6433   93.5141   11.9754 C.ar    1  UNL1        0.1402
     24 F          65.3933   93.9331   10.5570 F       1  UNL1       -0.2042
     25 C          65.0109   92.2636   12.5106 C.ar    1  UNL1        0.0328
@<TRIPOS>BOND
     1     7     8    1
     2     8     9    1
     3     9    10    1
     4    10    11    1
     5    11    12    1
     6    12    13    1
     7    13     1    1
     8     1     2    2
     9     1     3   am
    10     3     4    1
    11     4     5    1
    12     5    14    1
    13    14    15   ar
    14    15    16   ar
    15    16    19    1
    16    19    20   ar
    17    20    21   ar
    18    21    22   ar
    19    22    23   ar
    20    23    24    1
    21    23    25   ar
    22    16    17   ar
    23    17    18   ar
    24     5     6    1
    25    13     8    1
    26     6     3    1
    27    18    14   ar
    28    25    19   ar
@<TRIPOS>MOLECULE
*****
 25 28 0 0 0
SMALL
GASTEIGER

@<TRIPOS>ATOM
      1 C          65.2813   91.5265   13.5820 C.2     1  UNL1        0.2252
      2 O          64.5900   92.3637   12.5471 O.2     1  UNL1       -0.2749
      3 N          64.7875   90.1416   13.8787 N.am    1  UNL1       -0.2784
      4 C          63.6721   89.2804   13.3646 C.3     1  UNL1        0.1044
      5 C          64.0890   88.1830   14.2983 C.3     1  UNL1        0.1187
      6 C          65.2044   89.0442   14.8124 C.3     1  UNL1        0.1044
      7 C          67.9499   91.6935   12.2216 C.3     1  UNL1        0.0005
      8 C          67.8009   92.1578   13.6401 C.3     1  UNL1        0.0086
      9 C          68.9861   92.7056   14.3784 C.3     1  UNL1        0.0005
     10 C          68.8371   93.1699   15.7970 C.3     1  UNL1        0.0000
     11 C          67.5028   93.0864   16.4772 C.3     1  UNL1        0.0005
     12 C          66.3176   92.5386   15.7389 C.3     1  UNL1        0.0091
     13 C          66.4666   92.0743   14.3203 C.3     1  UNL1        0.0767
     14 C          63.5950   86.7980   14.5949 C.ar    1  UNL1        0.2395
     15 N          63.5892   85.6408   13.6407 N.ar    1  UNL1       -0.1907
     16 C          63.0108   84.4547   14.3538 C.ar    1  UNL1        0.2033
     17 N          62.6591   84.8789   15.7489 N.ar    1  UNL1       -0.0560
     18 O          63.0202   86.3272   15.8979 O.2     1  UNL1       -0.3369
     19 C          62.8179   83.0850   13.7738 C.ar    1  UNL1        0.0413
     20 C          63.6709   82.6291   12.6272 C.ar    1  UNL1        0.0033
     21 C          63.4780   81.2593   12.0471 C.ar    1  UNL1        0.0024
     22 C          62.4321   80.3453   12.6137 C.ar    1  UNL1        0.0296
     23 C          61.5792   80.8012   13.7602 C.ar    1  UNL1        0.1402
     24 F          60.5333   79.8873   14.3268 F       1  UNL1       -0.2042
     25 C          61.7720   82.1710   14.3403 C.ar    1  UNL1        0.0328
@<TRIPOS>BOND
     1     7     8    1
     2     8     9    1
     3     9    10    1
     4    10    11    1
     5    11    12    1
     6    12    13    1
     7    13     1    1
     8     1     2    2
     9     1     3   am
    10     3     4    1
    11     4     5    1
    12     5    14    1
    13    14    15   ar
    14    15    16   ar
    15    16    19    1
    16    19    20   ar
    17    20    21   ar
    18    21    22   ar
    19    22    23   ar
    20    23    24    1
    21    23    25   ar
    22    16    17   ar
    23    17    18   ar
    24     5     6    1
    25    13     8    1
    26     6     3    1
    27    18    14   ar
    28    25    19   ar
@<TRIPOS>MOLECULE
*****
 25 28 0 0 0
SMALL
GASTEIGER

@<TRIPOS>ATOM
      1 C          60.4884   87.7821    9.8537 C.2     1  UNL1        0.2252
      2 O          59.0356   88.1162    9.6865 O.2     1  UNL1       -0.2749
      3 N          61.2998   88.4717   10.9101 N.am    1  UNL1       -0.2784
      4 C          61.0187   89.5137   11.9518 C.3     1  UNL1        0.1044
      5 C          62.4474   89.4470   12.4040 C.3     1  UNL1        0.1187
      6 C          62.7285   88.4050   11.3623 C.3     1  UNL1        0.1044
      7 C          58.9882   86.6934    7.4948 C.3     1  UNL1        0.0005
      8 C          60.3796   86.2140    7.7850 C.3     1  UNL1        0.0086
      9 C          61.0209   85.1903    6.8958 C.3     1  UNL1        0.0005
     10 C          62.4122   84.7109    7.1861 C.3     1  UNL1        0.0000
     11 C          63.1623   85.2552    8.3655 C.3     1  UNL1        0.0005
     12 C          62.5210   86.2789    9.2547 C.3     1  UNL1        0.0091
     13 C          61.1297   86.7583    8.9644 C.3     1  UNL1        0.0767
     14 C          63.2588   90.1366   13.4605 C.ar    1  UNL1        0.2395
     15 N          64.6643   90.6372   13.3060 N.ar    1  UNL1       -0.1907
     16 C          65.0813   91.2567   14.6068 C.ar    1  UNL1        0.2033
     17 N          63.9336   91.1390   15.5653 N.ar    1  UNL1       -0.0560
     18 O          62.8072   90.4468   14.8568 O.2     1  UNL1       -0.3369
     19 C          66.4124   91.8839   14.8981 C.ar    1  UNL1        0.0413
     20 C          66.5732   92.7846   16.0868 C.ar    1  UNL1        0.0033
     21 C          67.9043   93.4117   16.3780 C.ar    1  UNL1        0.0024
     22 C          69.0748   93.1381   15.4806 C.ar    1  UNL1        0.0296
     23 C          68.9140   92.2374   14.2919 C.ar    1  UNL1        0.1402
     24 F          70.0844   91.9638   13.3945 F       1  UNL1       -0.2042
     25 C          67.5829   91.6103   14.0007 C.ar    1  UNL1        0.0328
@<TRIPOS>BOND
     1     7     8    1
     2     8     9    1
     3     9    10    1
     4    10    11    1
     5    11    12    1
     6    12    13    1
     7    13     1    1
     8     1     2    2
     9     1     3   am
    10     3     4    1
    11     4     5    1
    12     5    14    1
    13    14    15   ar
    14    15    16   ar
    15    16    19    1
    16    19    20   ar
    17    20    21   ar
    18    21    22   ar
    19    22    23   ar
    20    23    24    1
    21    23    25   ar
    22    16    17   ar
    23    17    18   ar
    24     5     6    1
    25    13     8    1
    26     6     3    1
    27    18    14   ar
    28    25    19   ar
@<TRIPOS>MOLECULE
*****
 25 28 0 0 0
SMALL
GASTEIGER

@<TRIPOS>ATOM
      1 C          63.5925   84.1284   11.2140 C.2     1  UNL1        0.2252
      2 O          64.7259   83.4329   10.5199 O.2     1  UNL1       -0.2749
      3 N          62.6217   84.9537   10.4226 N.am    1  UNL1       -0.2784
      4 C          62.4641   85.3063    8.9732 C.3     1  UNL1        0.1044
      5 C          61.2486   86.1208    9.3035 C.3     1  UNL1        0.1187
      6 C          61.4061   85.7682   10.7529 C.3     1  UNL1        0.1044
      7 C          62.3482   81.6587   12.3769 C.3     1  UNL1        0.0005
      8 C          62.8080   82.7638   13.2810 C.3     1  UNL1        0.0086
      9 C          62.6455   82.6341   14.7665 C.3     1  UNL1        0.0005
     10 C          63.1052   83.7392   15.6706 C.3     1  UNL1        0.0000
     11 C          63.7274   84.9740   15.0892 C.3     1  UNL1        0.0005
     12 C          63.8898   85.1038   13.6037 C.3     1  UNL1        0.0091
     13 C          63.4301   83.9987   12.6996 C.3     1  UNL1        0.0767
     14 C          60.2777   86.9461    8.5120 C.ar    1  UNL1        0.2395
     15 N          60.6148   88.1489    7.6817 N.ar    1  UNL1       -0.1907
     16 C          59.3448   88.6597    7.0685 C.ar    1  UNL1        0.2033
     17 N          58.2227   87.7725    7.5198 N.ar    1  UNL1       -0.0560
     18 O          58.7993   86.7134    8.4119 O.2     1  UNL1       -0.3369
     19 C          59.2189   89.8488    6.1629 C.ar    1  UNL1        0.0413
     20 C          60.4454   90.4601    5.5528 C.ar    1  UNL1        0.0033
     21 C          60.3195   91.6492    4.6473 C.ar    1  UNL1        0.0024
     22 C          58.9671   92.2272    4.3518 C.ar    1  UNL1        0.0296
     23 C          57.7407   91.6160    4.9620 C.ar    1  UNL1        0.1402
     24 F          56.3884   92.1939    4.6666 F       1  UNL1       -0.2042
     25 C          57.8666   90.4268    5.8675 C.ar    1  UNL1        0.0328
@<TRIPOS>BOND
     1     7     8    1
     2     8     9    1
     3     9    10    1
     4    10    11    1
     5    11    12    1
     6    12    13    1
     7    13     1    1
     8     1     2    2
     9     1     3   am
    10     3     4    1
    11     4     5    1
    12     5    14    1
    13    14    15   ar
    14    15    16   ar
    15    16    19    1
    16    19    20   ar
    17    20    21   ar
    18    21    22   ar
    19    22    23   ar
    20    23    24    1
    21    23    25   ar
    22    16    17   ar
    23    17    18   ar
    24     5     6    1
    25    13     8    1
    26     6     3    1
    27    18    14   ar
    28    25    19   ar
@<TRIPOS>MOLECULE
*****
 25 28 0 0 0
SMALL
GASTEIGER

@<TRIPOS>ATOM
      1 C          64.7835   91.6740   15.6568 C.2     1  UNL1        0.2252
      2 O          63.8358   92.3935   16.5703 O.2     1  UNL1       -0.2749
      3 N          64.3300   90.4490   14.9196 N.am    1  UNL1       -0.2784
      4 C          63.0504   89.6700   14.8431 C.3     1  UNL1        0.1044
      5 C          63.6887   88.7165   13.8769 C.3     1  UNL1        0.1187
      6 C          64.9683   89.4955   13.9534 C.3     1  UNL1        0.1044
      7 C          65.6771   92.7188   12.9903 C.3     1  UNL1        0.0005
      8 C          66.6315   92.7021   14.1474 C.3     1  UNL1        0.0086
      9 C          68.0326   93.2077   13.9713 C.3     1  UNL1        0.0005
     10 C          68.9870   93.1910   15.1284 C.3     1  UNL1        0.0000
     11 C          68.5402   92.6686   16.4616 C.3     1  UNL1        0.0005
     12 C          67.1391   92.1630   16.6378 C.3     1  UNL1        0.0091
     13 C          66.1847   92.1797   15.4807 C.3     1  UNL1        0.0767
     14 C          63.2351   87.4914   13.1396 C.ar    1  UNL1        0.2395
     15 N          63.4511   86.0716   13.5723 N.ar    1  UNL1       -0.1907
     16 C          62.8355   85.1737   12.5404 C.ar    1  UNL1        0.2033
     17 N          62.2390   86.0387   11.4699 N.ar    1  UNL1       -0.0560
     18 O          62.4860   87.4711   11.8403 O.2     1  UNL1       -0.3369
     19 C          62.8192   83.6742   12.5731 C.ar    1  UNL1        0.0413
     20 C          62.6167   82.9546   13.8736 C.ar    1  UNL1        0.0033
     21 C          62.6004   81.4551   13.9064 C.ar    1  UNL1        0.0024
     22 C          62.7866   80.6751   12.6387 C.ar    1  UNL1        0.0296
     23 C          62.9890   81.3947   11.3382 C.ar    1  UNL1        0.1402
     24 F          63.1752   80.6147   10.0705 F       1  UNL1       -0.2042
     25 C          63.0053   82.8942   11.3054 C.ar    1  UNL1        0.0328
@<TRIPOS>BOND
     1     7     8    1
     2     8     9    1
     3     9    10    1
     4    10    11    1
     5    11    12    1
     6    12    13    1
     7    13     1    1
     8     1     2    2
     9     1     3   am
    10     3     4    1
    11     4     5    1
    12     5    14    1
    13    14    15   ar
    14    15    16   ar
    15    16    19    1
    16    19    20   ar
    17    20    21   ar
    18    21    22   ar
    19    22    23   ar
    20    23    24    1
    21    23    25   ar
    22    16    17   ar
    23    17    18   ar
    24     5     6    1
    25    13     8    1
    26     6     3    1
    27    18    14   ar
    28    25    19   ar
