@<TRIPOS>MOLECULE
*****
 31 35 0 0 0
SMALL
GASTEIGER

@<TRIPOS>ATOM
      1 C          64.1872   90.6585   15.6484 C.3     1  UNL1        0.1128
      2 O          63.2926   91.5446   16.4636 O.3     1  UNL1       -0.3844
      3 H          63.5558   92.4701   16.3413 H       1  UNL1        0.2103
      4 O          62.4346   84.0944   16.6928 O.2     1  UNL1       -0.2745
      5 C          63.3857   84.7126   15.7113 C.2     1  UNL1        0.2301
      6 N          63.5860   86.1992   15.6956 N.am    1  UNL1       -0.2793
      7 C          62.8354   87.0673   16.6614 C.3     1  UNL1        0.0935
      8 C          63.0358   88.5538   16.6457 C.3     1  UNL1        0.0240
      9 C          63.9868   89.1720   15.6642 C.3     1  UNL1        0.0304
     10 C          64.7374   88.3038   14.6984 C.3     1  UNL1        0.0240
     11 C          64.5370   86.8174   14.7141 C.3     1  UNL1        0.0935
     12 C          64.1363   83.8444   14.7455 C.3     1  UNL1        0.1116
     13 C          63.8184   83.9032   13.2808 C.ar    1  UNL1       -0.0100
     14 C          62.7215   84.7991   12.7868 C.ar    1  UNL1        0.0169
     15 C          62.4036   84.8580   11.3220 C.ar    1  UNL1        0.0986
     16 N          63.1826   84.0208   10.3513 N.ar    1  UNL1       -0.2423
     17 C          64.2796   83.1248   10.8453 C.ar    1  UNL1        0.0986
     18 C          64.5974   83.0660   12.3101 C.ar    1  UNL1        0.0169
     19 C          65.2823   91.2589   14.8174 C.3     1  UNL1        0.0564
     20 C          65.0067   91.6791   13.4040 C.3     1  UNL1        0.1119
     21 C          64.0465   91.0191   12.4593 C.ar    1  UNL1       -0.0002
     22 C          63.1388   89.8352   12.6154 C.ar    1  UNL1       -0.0024
     23 C          62.2738   89.3974   11.4708 C.ar    1  UNL1       -0.0003
     24 C          62.3166   90.1434   10.1702 C.ar    1  UNL1        0.0000
     25 C          63.2244   91.3272   10.0141 C.ar    1  UNL1        0.0012
     26 C          64.0894   91.7651   11.1587 C.ar    1  UNL1        0.0152
     27 C          65.0760   92.8861   11.2996 C.ar    1  UNL1        0.0804
     28 C          65.7123   94.0400   10.5828 C.ar    1  UNL1        0.1177
     29 N          66.6725   94.6999   11.5276 N.ar    1  UNL1       -0.2223
     30 C          66.6297   93.9539   12.8282 C.ar    1  UNL1        0.1788
     31 N          65.6430   92.8329   12.6873 N.ar    1  UNL1       -0.3069
@<TRIPOS>BOND
     1     4     5    2
     2     5    12    1
     3    12    13    1
     4    13    14   ar
     5    14    15   ar
     6    15    16   ar
     7    16    17   ar
     8    17    18   ar
     9     5     6   am
    10     6     7    1
    11     7     8    1
    12     8     9    1
    13     9     1    1
    14     1     2    1
    15     1    19    1
    16    19    20    1
    17    20    21    1
    18    21    22   ar
    19    22    23   ar
    20    23    24   ar
    21    24    25   ar
    22    25    26   ar
    23    26    27    1
    24    27    28   ar
    25    28    29   ar
    26    29    30   ar
    27    30    31   ar
    28     9    10    1
    29    10    11    1
    30    18    13   ar
    31    11     6    1
    32    31    20    1
    33    26    21   ar
    34    31    27   ar
    35     2     3    1
@<TRIPOS>MOLECULE
*****
 31 35 0 0 0
SMALL
GASTEIGER

@<TRIPOS>ATOM
      1 C          63.5016   85.1513   15.5928 C.3     1  UNL1        0.1128
      2 O          64.5354   84.3005   16.2691 O.3     1  UNL1       -0.3844
      3 H          64.3019   83.3647   16.1659 H       1  UNL1        0.2103
      4 O          63.4644   91.9185   16.7982 O.2     1  UNL1       -0.2745
      5 C          64.0271   91.1279   15.6544 C.2     1  UNL1        0.2301
      6 N          63.8957   89.6337   15.6391 N.am    1  UNL1       -0.2793
      7 C          63.2016   88.9302   16.7674 C.3     1  UNL1        0.0935
      8 C          63.0702   87.4361   16.7520 C.3     1  UNL1        0.0240
      9 C          63.6330   86.6455   15.6082 C.3     1  UNL1        0.0304
     10 C          64.3272   87.3489   14.4799 C.3     1  UNL1        0.0240
     11 C          64.4585   88.8431   14.4953 C.3     1  UNL1        0.0935
     12 C          64.7213   91.8314   14.5261 C.3     1  UNL1        0.1116
     13 C          66.1861   92.1397   14.6224 C.ar    1  UNL1       -0.0100
     14 C          66.7349   92.7960   15.8545 C.ar    1  UNL1        0.0169
     15 C          68.1997   93.1043   15.9509 C.ar    1  UNL1        0.0986
     16 N          69.1157   92.7563   14.8152 N.ar    1  UNL1       -0.2423
     17 C          68.5669   92.1000   13.5830 C.ar    1  UNL1        0.0986
     18 C          67.1021   91.7917   13.4867 C.ar    1  UNL1        0.0169
     19 C          62.3364   84.5079   14.9010 C.3     1  UNL1        0.0564
     20 C          62.4966   83.9609   13.5135 C.3     1  UNL1        0.1119
     21 C          62.4981   84.7615   12.2450 C.ar    1  UNL1       -0.0002
     22 C          62.3528   86.2317   11.9858 C.ar    1  UNL1       -0.0024
     23 C          62.3952   86.7532   10.5801 C.ar    1  UNL1       -0.0003
     24 C          62.5830   85.8044    9.4335 C.ar    1  UNL1        0.0000
     25 C          62.7283   84.3342    9.6927 C.ar    1  UNL1        0.0012
     26 C          62.6859   83.8127   11.0984 C.ar    1  UNL1        0.0152
     27 C          62.8004   82.4259   11.6584 C.ar    1  UNL1        0.0804
     28 C          62.9872   80.9823   11.2958 C.ar    1  UNL1        0.1177
     29 N          62.9857   80.1819   12.5644 N.ar    1  UNL1       -0.2223
     30 C          62.7979   81.1306   13.7110 C.ar    1  UNL1        0.1788
     31 N          62.6834   82.5175   13.1510 N.ar    1  UNL1       -0.3069
@<TRIPOS>BOND
     1     4     5    2
     2     5    12    1
     3    12    13    1
     4    13    14   ar
     5    14    15   ar
     6    15    16   ar
     7    16    17   ar
     8    17    18   ar
     9     5     6   am
    10     6     7    1
    11     7     8    1
    12     8     9    1
    13     9     1    1
    14     1     2    1
    15     1    19    1
    16    19    20    1
    17    20    21    1
    18    21    22   ar
    19    22    23   ar
    20    23    24   ar
    21    24    25   ar
    22    25    26   ar
    23    26    27    1
    24    27    28   ar
    25    28    29   ar
    26    29    30   ar
    27    30    31   ar
    28     9    10    1
    29    10    11    1
    30    18    13   ar
    31    11     6    1
    32    31    20    1
    33    26    21   ar
    34    31    27   ar
    35     2     3    1
@<TRIPOS>MOLECULE
*****
 31 35 0 0 0
SMALL
GASTEIGER

@<TRIPOS>ATOM
      1 C          61.0742   88.6320   10.7071 C.3     1  UNL1        0.1128
      2 O          60.0771   89.1499    9.7133 O.3     1  UNL1       -0.3844
      3 H          59.4461   88.4472    9.4922 H       1  UNL1        0.2103
      4 O          66.1665   91.8742   13.9944 O.2     1  UNL1       -0.2745
      5 C          65.4326   92.2233   12.7336 C.2     1  UNL1        0.2301
      6 N          64.3430   91.3254   12.2270 N.am    1  UNL1       -0.2793
      7 C          63.9873   90.0786   12.9812 C.3     1  UNL1        0.0935
      8 C          62.8977   89.1808   12.4745 C.3     1  UNL1        0.0240
      9 C          62.1638   89.5298   11.2137 C.3     1  UNL1        0.0304
     10 C          62.5195   90.7767   10.4596 C.3     1  UNL1        0.0240
     11 C          63.6091   91.6745   10.9663 C.3     1  UNL1        0.0935
     12 C          65.7883   93.4702   11.9795 C.3     1  UNL1        0.1116
     13 C          66.6562   93.3867   10.7590 C.ar    1  UNL1       -0.0100
     14 C          66.6430   94.4982    9.7519 C.ar    1  UNL1        0.0169
     15 C          67.5109   94.4148    8.5313 C.ar    1  UNL1        0.0986
     16 N          68.3919   93.2197    8.3178 N.ar    1  UNL1       -0.2423
     17 C          68.4052   92.1081    9.3249 C.ar    1  UNL1        0.0986
     18 C          67.5373   92.1916   10.5455 C.ar    1  UNL1        0.0169
     19 C          60.9817   87.2163   11.1943 C.3     1  UNL1        0.0564
     20 C          61.7534   86.1327   10.5012 C.3     1  UNL1        0.1119
     21 C          62.7019   85.1708   11.1532 C.ar    1  UNL1       -0.0002
     22 C          63.1399   85.0032   12.5779 C.ar    1  UNL1       -0.0024
     23 C          64.1228   83.9292   12.9390 C.ar    1  UNL1       -0.0003
     24 C          64.6677   83.0228   11.8753 C.ar    1  UNL1        0.0000
     25 C          64.2297   83.1903   10.4505 C.ar    1  UNL1        0.0012
     26 C          63.2468   84.2644   10.0894 C.ar    1  UNL1        0.0152
     27 C          62.6349   84.6661    8.7801 C.ar    1  UNL1        0.0804
     28 C          62.5936   84.3540    7.3134 C.ar    1  UNL1        0.1177
     29 N          61.6450   85.3160    6.6616 N.ar    1  UNL1       -0.2223
     30 C          61.1001   86.2224    7.7253 C.ar    1  UNL1        0.1788
     31 N          61.7119   85.8207    9.0346 N.ar    1  UNL1       -0.3069
@<TRIPOS>BOND
     1     4     5    2
     2     5    12    1
     3    12    13    1
     4    13    14   ar
     5    14    15   ar
     6    15    16   ar
     7    16    17   ar
     8    17    18   ar
     9     5     6   am
    10     6     7    1
    11     7     8    1
    12     8     9    1
    13     9     1    1
    14     1     2    1
    15     1    19    1
    16    19    20    1
    17    20    21    1
    18    21    22   ar
    19    22    23   ar
    20    23    24   ar
    21    24    25   ar
    22    25    26   ar
    23    26    27    1
    24    27    28   ar
    25    28    29   ar
    26    29    30   ar
    27    30    31   ar
    28     9    10    1
    29    10    11    1
    30    18    13   ar
    31    11     6    1
    32    31    20    1
    33    26    21   ar
    34    31    27   ar
    35     2     3    1
@<TRIPOS>MOLECULE
*****
 31 35 0 0 0
SMALL
GASTEIGER

@<TRIPOS>ATOM
      1 C          63.3377   85.4314   15.9747 C.3     1  UNL1        0.1128
      2 O          62.3053   84.8985   16.9235 O.3     1  UNL1       -0.3844
      3 H          62.2720   83.9314   16.8552 H       1  UNL1        0.2103
      4 O          63.6412   92.2717   16.5799 O.2     1  UNL1       -0.2745
      5 C          64.3276   91.3389   15.6268 C.2     1  UNL1        0.2301
      6 N          64.0801   89.8620   15.7138 N.am    1  UNL1       -0.2793
      7 C          63.1461   89.3180   16.7539 C.3     1  UNL1        0.0935
      8 C          62.8987   87.8411   16.8409 C.3     1  UNL1        0.0240
      9 C          63.5852   86.9083   15.8877 C.3     1  UNL1        0.0304
     10 C          64.5191   87.4522   14.8477 C.3     1  UNL1        0.0240
     11 C          64.7666   88.9291   14.7607 C.3     1  UNL1        0.0935
     12 C          65.2616   91.8829   14.5867 C.3     1  UNL1        0.1116
     13 C          64.8564   91.8854   13.1425 C.ar    1  UNL1       -0.0100
     14 C          65.6476   92.6759   12.1430 C.ar    1  UNL1        0.0169
     15 C          65.2425   92.6784   10.6987 C.ar    1  UNL1        0.0986
     16 N          64.0460   91.8905   10.2541 N.ar    1  UNL1       -0.2423
     17 C          63.2547   91.0999   11.2536 C.ar    1  UNL1        0.0986
     18 C          63.6600   91.0974   12.6979 C.ar    1  UNL1        0.0169
     19 C          64.1227   84.4873   15.1128 C.3     1  UNL1        0.0564
     20 C          63.5631   84.0307   13.7981 C.3     1  UNL1        0.1119
     21 C          63.0946   84.9182   12.6833 C.ar    1  UNL1       -0.0002
     22 C          63.0421   86.4107   12.5431 C.ar    1  UNL1       -0.0024
     23 C          62.5108   87.0273   11.2832 C.ar    1  UNL1       -0.0003
     24 C          62.0320   86.1515   10.1635 C.ar    1  UNL1        0.0000
     25 C          62.0845   84.6590   10.3037 C.ar    1  UNL1        0.0012
     26 C          62.6158   84.0424   11.5636 C.ar    1  UNL1        0.0152
     27 C          62.7884   82.6136   11.9865 C.ar    1  UNL1        0.0804
     28 C          62.5992   81.1892   11.5557 C.ar    1  UNL1        0.1177
     29 N          63.0678   80.3017   12.6706 N.ar    1  UNL1       -0.2223
     30 C          63.5466   81.1775   13.7903 C.ar    1  UNL1        0.1788
     31 N          63.3739   82.6063   13.3674 N.ar    1  UNL1       -0.3069
@<TRIPOS>BOND
     1     4     5    2
     2     5    12    1
     3    12    13    1
     4    13    14   ar
     5    14    15   ar
     6    15    16   ar
     7    16    17   ar
     8    17    18   ar
     9     5     6   am
    10     6     7    1
    11     7     8    1
    12     8     9    1
    13     9     1    1
    14     1     2    1
    15     1    19    1
    16    19    20    1
    17    20    21    1
    18    21    22   ar
    19    22    23   ar
    20    23    24   ar
    21    24    25   ar
    22    25    26   ar
    23    26    27    1
    24    27    28   ar
    25    28    29   ar
    26    29    30   ar
    27    30    31   ar
    28     9    10    1
    29    10    11    1
    30    18    13   ar
    31    11     6    1
    32    31    20    1
    33    26    21   ar
    34    31    27   ar
    35     2     3    1
@<TRIPOS>MOLECULE
*****
 31 35 0 0 0
SMALL
GASTEIGER

@<TRIPOS>ATOM
      1 C          61.0661   88.9087   10.8837 C.3     1  UNL1        0.1128
      2 O          60.1244   89.4342    9.8411 O.3     1  UNL1       -0.3844
      3 H          59.4610   88.7575    9.6340 H       1  UNL1        0.2103
      4 O          66.2796   91.9874   14.1379 O.2     1  UNL1       -0.2745
      5 C          65.5657   92.3459   12.8684 C.2     1  UNL1        0.2301
      6 N          64.4407   91.4865   12.3722 N.am    1  UNL1       -0.2793
      7 C          64.0299   90.2687   13.1456 C.3     1  UNL1        0.0935
      8 C          62.9049   89.4094   12.6494 C.3     1  UNL1        0.0240
      9 C          62.1910   89.7679   11.3799 C.3     1  UNL1        0.0304
     10 C          62.6019   90.9857   10.6065 C.3     1  UNL1        0.0240
     11 C          63.7268   91.8450   11.1027 C.3     1  UNL1        0.0935
     12 C          65.9766   93.5637   12.0950 C.3     1  UNL1        0.1116
     13 C          66.7763   93.4171   10.8345 C.ar    1  UNL1       -0.0100
     14 C          66.7232   94.4866    9.7841 C.ar    1  UNL1        0.0169
     15 C          67.5229   94.3401    8.5235 C.ar    1  UNL1        0.0986
     16 N          68.3757   93.1242    8.3134 N.ar    1  UNL1       -0.2423
     17 C          68.4289   92.0546    9.3639 C.ar    1  UNL1        0.0986
     18 C          67.6291   92.2012   10.6244 C.ar    1  UNL1        0.0169
     19 C          60.8828   87.5237   11.4302 C.3     1  UNL1        0.0564
     20 C          61.7144   86.3928   10.9015 C.3     1  UNL1        0.1119
     21 C          61.7476   85.9118    9.4811 C.ar    1  UNL1       -0.0002
     22 C          61.0241   86.3692    8.2494 C.ar    1  UNL1       -0.0024
     23 C          61.2653   85.6808    6.9388 C.ar    1  UNL1       -0.0003
     24 C          62.2301   84.5350    6.8599 C.ar    1  UNL1        0.0000
     25 C          62.9537   84.0776    8.0916 C.ar    1  UNL1        0.0012
     26 C          62.7125   84.7660    9.4022 C.ar    1  UNL1        0.0152
     27 C          63.2754   84.5388   10.7739 C.ar    1  UNL1        0.0804
     28 C          64.2197   83.6902   11.5729 C.ar    1  UNL1        0.1177
     29 N          64.1864   84.1712   12.9933 N.ar    1  UNL1       -0.2223
     30 C          63.2216   85.3170   13.0722 C.ar    1  UNL1        0.1788
     31 N          62.6586   85.5442   11.7005 N.ar    1  UNL1       -0.3069
@<TRIPOS>BOND
     1     4     5    2
     2     5    12    1
     3    12    13    1
     4    13    14   ar
     5    14    15   ar
     6    15    16   ar
     7    16    17   ar
     8    17    18   ar
     9     5     6   am
    10     6     7    1
    11     7     8    1
    12     8     9    1
    13     9     1    1
    14     1     2    1
    15     1    19    1
    16    19    20    1
    17    20    21    1
    18    21    22   ar
    19    22    23   ar
    20    23    24   ar
    21    24    25   ar
    22    25    26   ar
    23    26    27    1
    24    27    28   ar
    25    28    29   ar
    26    29    30   ar
    27    30    31   ar
    28     9    10    1
    29    10    11    1
    30    18    13   ar
    31    11     6    1
    32    31    20    1
    33    26    21   ar
    34    31    27   ar
    35     2     3    1
@<TRIPOS>MOLECULE
*****
 31 35 0 0 0
SMALL
GASTEIGER

@<TRIPOS>ATOM
      1 C          63.4897   89.9556   16.0020 C.3     1  UNL1        0.1128
      2 O          63.4695   90.5054   17.3974 O.3     1  UNL1       -0.3844
      3 H          63.3546   91.4680   17.3640 H       1  UNL1        0.2103
      4 O          63.5752   83.0828   16.0868 O.2     1  UNL1       -0.2745
      5 C          64.1584   84.0601   15.1097 C.2     1  UNL1        0.2301
      6 N          63.9912   85.5340   15.3328 N.am    1  UNL1       -0.2793
      7 C          63.2408   86.0305   16.5330 C.3     1  UNL1        0.0935
      8 C          63.0736   87.5044   16.7560 C.3     1  UNL1        0.0240
      9 C          63.6569   88.4817   15.7789 C.3     1  UNL1        0.0304
     10 C          64.4072   87.9852   14.5788 C.3     1  UNL1        0.0240
     11 C          64.5744   86.5113   14.3558 C.3     1  UNL1        0.0935
     12 C          64.9088   83.5636   13.9096 C.3     1  UNL1        0.1116
     13 C          64.2325   82.6566   12.9246 C.ar    1  UNL1       -0.0100
     14 C          63.3875   81.5171   13.4120 C.ar    1  UNL1        0.0169
     15 C          62.7112   80.6101   12.4270 C.ar    1  UNL1        0.0986
     16 N          62.8800   80.8427   10.9548 N.ar    1  UNL1       -0.2423
     17 C          63.7250   81.9823   10.4675 C.ar    1  UNL1        0.0986
     18 C          64.4012   82.8892   11.4524 C.ar    1  UNL1        0.0169
     19 C          63.3428   90.8797   14.8295 C.3     1  UNL1        0.0564
     20 C          64.5357   91.6239   14.3070 C.3     1  UNL1        0.1119
     21 C          64.8401   91.9003   12.8644 C.ar    1  UNL1       -0.0002
     22 C          64.1123   91.5508   11.6003 C.ar    1  UNL1       -0.0024
     23 C          64.6706   91.9707   10.2729 C.ar    1  UNL1       -0.0003
     24 C          65.9567   92.7400   10.2097 C.ar    1  UNL1        0.0000
     25 C          66.6845   93.0895   11.4739 C.ar    1  UNL1        0.0012
     26 C          66.1262   92.6697   12.8012 C.ar    1  UNL1        0.0152
     27 C          66.6166   92.8688   14.2047 C.ar    1  UNL1        0.0804
     28 C          67.7147   93.4674   15.0331 C.ar    1  UNL1        0.1177
     29 N          67.4102   93.1910   16.4757 N.ar    1  UNL1       -0.2223
     30 C          66.1241   92.4216   16.5389 C.ar    1  UNL1        0.1788
     31 N          65.6337   92.2225   15.1354 N.ar    1  UNL1       -0.3069
@<TRIPOS>BOND
     1     4     5    2
     2     5    12    1
     3    12    13    1
     4    13    14   ar
     5    14    15   ar
     6    15    16   ar
     7    16    17   ar
     8    17    18   ar
     9     5     6   am
    10     6     7    1
    11     7     8    1
    12     8     9    1
    13     9     1    1
    14     1     2    1
    15     1    19    1
    16    19    20    1
    17    20    21    1
    18    21    22   ar
    19    22    23   ar
    20    23    24   ar
    21    24    25   ar
    22    25    26   ar
    23    26    27    1
    24    27    28   ar
    25    28    29   ar
    26    29    30   ar
    27    30    31   ar
    28     9    10    1
    29    10    11    1
    30    18    13   ar
    31    11     6    1
    32    31    20    1
    33    26    21   ar
    34    31    27   ar
    35     2     3    1
@<TRIPOS>MOLECULE
*****
 31 35 0 0 0
SMALL
GASTEIGER

@<TRIPOS>ATOM
      1 C          64.1527   90.6974   15.6234 C.3     1  UNL1        0.1128
      2 O          63.3123   91.5806   16.4973 O.3     1  UNL1       -0.3844
      3 H          63.5599   92.5074   16.3537 H       1  UNL1        0.2103
      4 O          62.4399   84.1349   16.7406 O.2     1  UNL1       -0.2745
      5 C          63.3973   84.7468   15.7614 C.2     1  UNL1        0.2301
      6 N          63.5861   86.2345   15.7270 N.am    1  UNL1       -0.2793
      7 C          62.8175   87.1101   16.6717 C.3     1  UNL1        0.0935
      8 C          63.0064   88.5978   16.6371 C.3     1  UNL1        0.0240
      9 C          63.9638   89.2098   15.6579 C.3     1  UNL1        0.0304
     10 C          64.7324   88.3341   14.7132 C.3     1  UNL1        0.0240
     11 C          64.5435   86.8465   14.7477 C.3     1  UNL1        0.0935
     12 C          64.1658   83.8711   14.8167 C.3     1  UNL1        0.1116
     13 C          63.8412   83.8813   13.3523 C.ar    1  UNL1       -0.0100
     14 C          62.7215   84.7369   12.8383 C.ar    1  UNL1        0.0169
     15 C          62.3968   84.7472   11.3739 C.ar    1  UNL1        0.0986
     16 N          63.1919   83.9018   10.4235 N.ar    1  UNL1       -0.2423
     17 C          64.3117   83.0462   10.9375 C.ar    1  UNL1        0.0986
     18 C          64.6363   83.0359   12.4019 C.ar    1  UNL1        0.0169
     19 C          65.1820   91.3019   14.7149 C.3     1  UNL1        0.0564
     20 C          64.8403   91.5944   13.2840 C.3     1  UNL1        0.1119
     21 C          65.3858   92.7232   12.4603 C.ar    1  UNL1       -0.0002
     22 C          66.3590   93.8192   12.7789 C.ar    1  UNL1       -0.0024
     23 C          66.7223   94.8279   11.7299 C.ar    1  UNL1       -0.0003
     24 C          66.1123   94.7406   10.3623 C.ar    1  UNL1        0.0000
     25 C          65.1390   93.6447   10.0437 C.ar    1  UNL1        0.0012
     26 C          64.7757   92.6359   11.0927 C.ar    1  UNL1        0.0152
     27 C          63.8533   91.4533   11.0712 C.ar    1  UNL1        0.0804
     28 C          62.9062   90.6684   10.2126 C.ar    1  UNL1        0.1177
     29 N          62.3608   89.5396   11.0364 N.ar    1  UNL1       -0.2223
     30 C          62.9708   89.6269   12.4040 C.ar    1  UNL1        0.1788
     31 N          63.8932   90.8096   12.4255 N.ar    1  UNL1       -0.3069
@<TRIPOS>BOND
     1     4     5    2
     2     5    12    1
     3    12    13    1
     4    13    14   ar
     5    14    15   ar
     6    15    16   ar
     7    16    17   ar
     8    17    18   ar
     9     5     6   am
    10     6     7    1
    11     7     8    1
    12     8     9    1
    13     9     1    1
    14     1     2    1
    15     1    19    1
    16    19    20    1
    17    20    21    1
    18    21    22   ar
    19    22    23   ar
    20    23    24   ar
    21    24    25   ar
    22    25    26   ar
    23    26    27    1
    24    27    28   ar
    25    28    29   ar
    26    29    30   ar
    27    30    31   ar
    28     9    10    1
    29    10    11    1
    30    18    13   ar
    31    11     6    1
    32    31    20    1
    33    26    21   ar
    34    31    27   ar
    35     2     3    1
@<TRIPOS>MOLECULE
*****
 31 35 0 0 0
SMALL
GASTEIGER

@<TRIPOS>ATOM
      1 C          60.8219   88.4410   10.5966 C.3     1  UNL1        0.1128
      2 O          59.7790   88.9042    9.6230 O.3     1  UNL1       -0.3844
      3 H          59.1804   88.1695    9.4165 H       1  UNL1        0.2103
      4 O          65.6126   93.2704   11.5842 O.2     1  UNL1       -0.2745
      5 C          65.0316   92.2567   12.5248 C.2     1  UNL1        0.2301
      6 N          63.9792   91.3028   12.0427 N.am    1  UNL1       -0.2793
      7 C          63.5078   91.3626   10.6200 C.3     1  UNL1        0.0935
      8 C          62.4553   90.4087   10.1379 C.3     1  UNL1        0.0240
      9 C          61.8743   89.3950   11.0786 C.3     1  UNL1        0.0304
     10 C          62.3457   89.3351   12.5013 C.3     1  UNL1        0.0240
     11 C          63.3982   90.2891   12.9834 C.3     1  UNL1        0.0935
     12 C          65.5031   92.1969   13.9475 C.3     1  UNL1        0.1116
     13 C          66.9473   92.4427   14.2700 C.ar    1  UNL1       -0.0100
     14 C          68.0204   91.8251   13.4234 C.ar    1  UNL1        0.0169
     15 C          69.4646   92.0708   13.7458 C.ar    1  UNL1        0.0986
     16 N          69.8356   92.9343   14.9149 N.ar    1  UNL1       -0.2423
     17 C          68.7624   93.5520   15.7616 C.ar    1  UNL1        0.0986
     18 C          67.3182   93.3062   15.4391 C.ar    1  UNL1        0.0169
     19 C          60.8122   87.0238   11.0882 C.3     1  UNL1        0.0564
     20 C          61.6520   85.9867   10.4032 C.3     1  UNL1        0.1119
     21 C          62.6371   85.0708   11.0671 C.ar    1  UNL1       -0.0002
     22 C          63.0567   84.9161   12.4988 C.ar    1  UNL1       -0.0024
     23 C          64.0873   83.8920   12.8719 C.ar    1  UNL1       -0.0003
     24 C          64.6982   83.0226   11.8131 C.ar    1  UNL1        0.0000
     25 C          64.2786   83.1773   10.3814 C.ar    1  UNL1        0.0012
     26 C          63.2480   84.2014   10.0084 C.ar    1  UNL1        0.0152
     27 C          62.6405   84.5800    8.6902 C.ar    1  UNL1        0.0804
     28 C          62.6426   84.2767    7.2211 C.ar    1  UNL1        0.1177
     29 N          61.6575   85.1927    6.5573 N.ar    1  UNL1       -0.2223
     30 C          61.0466   86.0620    7.6161 C.ar    1  UNL1        0.1788
     31 N          61.6541   85.6834    8.9342 N.ar    1  UNL1       -0.3069
@<TRIPOS>BOND
     1     4     5    2
     2     5    12    1
     3    12    13    1
     4    13    14   ar
     5    14    15   ar
     6    15    16   ar
     7    16    17   ar
     8    17    18   ar
     9     5     6   am
    10     6     7    1
    11     7     8    1
    12     8     9    1
    13     9     1    1
    14     1     2    1
    15     1    19    1
    16    19    20    1
    17    20    21    1
    18    21    22   ar
    19    22    23   ar
    20    23    24   ar
    21    24    25   ar
    22    25    26   ar
    23    26    27    1
    24    27    28   ar
    25    28    29   ar
    26    29    30   ar
    27    30    31   ar
    28     9    10    1
    29    10    11    1
    30    18    13   ar
    31    11     6    1
    32    31    20    1
    33    26    21   ar
    34    31    27   ar
    35     2     3    1
@<TRIPOS>MOLECULE
*****
 31 35 0 0 0
SMALL
GASTEIGER

@<TRIPOS>ATOM
      1 C          63.5872   90.4229   15.7530 C.3     1  UNL1        0.1128
      2 O          63.4575   91.0671   17.1014 O.3     1  UNL1       -0.3844
      3 H          63.3918   92.0291   16.9951 H       1  UNL1        0.2103
      4 O          63.3784   83.5751   16.3132 O.2     1  UNL1       -0.2745
      5 C          64.0611   84.4580   15.3110 C.2     1  UNL1        0.2301
      6 N          63.9426   85.9493   15.4216 N.am    1  UNL1       -0.2793
      7 C          63.1414   86.5575   16.5343 C.3     1  UNL1        0.0935
      8 C          63.0229   88.0488   16.6447 C.3     1  UNL1        0.0240
      9 C          63.7056   88.9317   15.6425 C.3     1  UNL1        0.0304
     10 C          64.5068   88.3234   14.5298 C.3     1  UNL1        0.0240
     11 C          64.6253   86.8322   14.4194 C.3     1  UNL1        0.0935
     12 C          64.8623   83.8497   14.1984 C.3     1  UNL1        0.1116
     13 C          64.1999   82.9369   13.2094 C.ar    1  UNL1       -0.0100
     14 C          64.2678   83.2442   11.7428 C.ar    1  UNL1        0.0169
     15 C          63.6055   82.3314   10.7538 C.ar    1  UNL1        0.0986
     16 N          62.8752   81.1114   11.2314 N.ar    1  UNL1       -0.2423
     17 C          62.8072   80.8041   12.6981 C.ar    1  UNL1        0.0986
     18 C          63.4696   81.7169   13.6871 C.ar    1  UNL1        0.0169
     19 C          63.5984   91.2699   14.5150 C.3     1  UNL1        0.0564
     20 C          64.9022   91.7245   13.9290 C.3     1  UNL1        0.1119
     21 C          66.1586   92.0167   14.6945 C.ar    1  UNL1       -0.0002
     22 C          66.4800   91.9526   16.1583 C.ar    1  UNL1       -0.0024
     23 C          67.8542   92.3111   16.6408 C.ar    1  UNL1       -0.0003
     24 C          68.9071   92.7338   15.6596 C.ar    1  UNL1        0.0000
     25 C          68.5857   92.7980   14.1958 C.ar    1  UNL1        0.0012
     26 C          67.2115   92.4394   13.7133 C.ar    1  UNL1        0.0152
     27 C          66.6058   92.4084   12.3414 C.ar    1  UNL1        0.0804
     28 C          66.8822   92.6505   10.8870 C.ar    1  UNL1        0.1177
     29 N          65.6257   92.3582   10.1216 N.ar    1  UNL1       -0.2223
     30 C          64.5728   91.9355   11.1028 C.ar    1  UNL1        0.1788
     31 N          65.1785   91.9666   12.4747 N.ar    1  UNL1       -0.3069
@<TRIPOS>BOND
     1     4     5    2
     2     5    12    1
     3    12    13    1
     4    13    14   ar
     5    14    15   ar
     6    15    16   ar
     7    16    17   ar
     8    17    18   ar
     9     5     6   am
    10     6     7    1
    11     7     8    1
    12     8     9    1
    13     9     1    1
    14     1     2    1
    15     1    19    1
    16    19    20    1
    17    20    21    1
    18    21    22   ar
    19    22    23   ar
    20    23    24   ar
    21    24    25   ar
    22    25    26   ar
    23    26    27    1
    24    27    28   ar
    25    28    29   ar
    26    29    30   ar
    27    30    31   ar
    28     9    10    1
    29    10    11    1
    30    18    13   ar
    31    11     6    1
    32    31    20    1
    33    26    21   ar
    34    31    27   ar
    35     2     3    1
