@<TRIPOS>MOLECULE
*****
 28 31 0 0 0
SMALL
GASTEIGER

@<TRIPOS>ATOM
      1 N          64.5027   89.3139   14.2570 N.pl3   1  UNL1       -0.2782
      2 C          63.8360   89.8765   13.0368 C.3     1  UNL1        0.0936
      3 C          64.6020   91.0934   12.6097 C.3     1  UNL1        0.0218
      4 C          64.6634   92.1932   11.5915 C.3     1  UNL1        0.0061
      5 C          65.8415   93.0624   11.9184 C.3     1  UNL1        0.0224
      6 C          66.5082   92.4997   13.1387 C.3     1  UNL1        0.0061
      7 C          65.7422   91.2828   13.5658 C.3     1  UNL1        0.0218
      8 C          65.6808   90.1830   14.5840 C.3     1  UNL1        0.0936
      9 C          62.4618   87.1626   18.5239 C.3     1  UNL1        0.0522
     10 C          63.0473   87.0202   17.1503 C.ar    1  UNL1        0.0638
     11 C          63.1979   85.6599   16.5365 C.ar    1  UNL1        0.0351
     12 CA         63.7834   85.5175   15.1629 C.ar    1  UNL1        0.0993
     13 N          64.2183   86.7355   14.4031 N.ar    1  UNL1       -0.2125
     14 C          64.0678   88.0959   15.0169 C.ar    1  UNL1        0.2198
     15 N          63.4823   88.2383   16.3905 N.ar    1  UNL1       -0.2180
     16 C          63.9339   84.1572   14.5490 C.2     1  UNL1        0.0906
     17 O          64.5290   84.0141   13.1795 O.co2   1  UNL1       -0.5430
     18 OXT        63.4895   82.9400   15.3046 O.co2   1  UNL1       -0.5430
     19 C          66.2764   94.2803   11.1586 C.ar    1  UNL1       -0.0186
     20 C          65.7569   95.6325   11.5481 C.ar    1  UNL1       -0.0043
     21 C          66.1919   96.8505   10.7883 C.ar    1  UNL1       -0.0003
     22 C          67.1464   96.7163    9.6390 C.ar    1  UNL1       -0.0001
     23 C          67.6659   95.3640    9.2495 C.ar    1  UNL1        0.0035
     24 C          67.2310   94.1461   10.0093 C.ar    1  UNL1        0.0675
     25 C          67.7505   92.7939    9.6199 C.3     1  UNL1        0.4183
     26 F          68.2700   91.4417    9.2304 F       1  UNL1       -0.1659
     27 F          66.3496   92.2577    9.6130 F       1  UNL1       -0.1659
     28 F          69.1513   93.3302    9.6267 F       1  UNL1       -0.1659
@<TRIPOS>UNITY_ATOM_ATTR
17 1
charge -1
@<TRIPOS>BOND
     1     9    10    1
     2    10    11   ar
     3    11    12   ar
     4    12    16    1
     5    16    17   ar
     6    16    18   ar
     7    12    13   ar
     8    13    14   ar
     9    14     1    1
    10     1     2    1
    11     3     2    1
    12     3     4    1
    13     4     5    1
    14     5    19    1
    15    19    20   ar
    16    20    21   ar
    17    21    22   ar
    18    22    23   ar
    19    23    24   ar
    20    24    25    1
    21    25    26    1
    22    25    27    1
    23    25    28    1
    24     5     6    1
    25     7     6    1
    26     7     8    1
    27    14    15   ar
    28    15    10   ar
    29     8     1    1
    30     7     3    1
    31    24    19   ar
@<TRIPOS>MOLECULE
*****
 28 31 0 0 0
SMALL
GASTEIGER

@<TRIPOS>ATOM
      1 N          64.2477   88.5929   13.5801 N.pl3   1  UNL1       -0.2782
      2 C          63.4117   87.9580   12.5086 C.3     1  UNL1        0.0936
      3 C          63.2430   86.5074   12.8509 C.3     1  UNL1        0.0218
      4 C          62.6221   85.2185   12.4003 C.3     1  UNL1        0.0061
      5 C          62.9700   84.1602   13.4048 C.3     1  UNL1        0.0224
      6 C          63.8060   84.7951   14.4763 C.3     1  UNL1        0.0061
      7 C          63.9747   86.2458   14.1340 C.3     1  UNL1        0.0218
      8 C          64.5957   87.5347   14.5846 C.3     1  UNL1        0.0936
      9 C          65.1438   93.1160   11.1846 C.3     1  UNL1        0.0522
     10 C          65.1109   92.2948   12.4393 C.ar    1  UNL1        0.0638
     11 C          65.4932   92.9138   13.7511 C.ar    1  UNL1        0.0351
     12 CA         65.4604   92.0925   15.0058 C.ar    1  UNL1        0.0993
     13 N          65.0452   90.6522   14.9487 N.ar    1  UNL1       -0.2125
     14 C          64.6629   90.0332   13.6370 C.ar    1  UNL1        0.2198
     15 N          64.6958   90.8545   12.3823 N.ar    1  UNL1       -0.2180
     16 C          65.8426   92.7115   16.3176 C.2     1  UNL1        0.0906
     17 O          67.2060   93.3114   16.4947 O.co2   1  UNL1       -0.5430
     18 OXT        64.8616   92.7305   17.4521 O.co2   1  UNL1       -0.5430
     19 C          62.5549   82.7200   13.3479 C.ar    1  UNL1       -0.0186
     20 C          61.5925   82.1762   14.3618 C.ar    1  UNL1       -0.0043
     21 C          61.1773   80.7358   14.3049 C.ar    1  UNL1       -0.0003
     22 C          61.7246   79.8394   13.2340 C.ar    1  UNL1       -0.0001
     23 C          62.6871   80.3832   12.2200 C.ar    1  UNL1        0.0035
     24 C          63.1022   81.8234   12.2770 C.ar    1  UNL1        0.0675
     25 C          64.0646   82.3672   11.2631 C.3     1  UNL1        0.4183
     26 F          65.0270   82.9110   10.2491 F       1  UNL1       -0.1659
     27 F          62.9397   82.5342   10.2849 F       1  UNL1       -0.1659
     28 F          65.1894   82.2002   12.2412 F       1  UNL1       -0.1659
@<TRIPOS>UNITY_ATOM_ATTR
17 1
charge -1
@<TRIPOS>BOND
     1     9    10    1
     2    10    11   ar
     3    11    12   ar
     4    12    16    1
     5    16    17   ar
     6    16    18   ar
     7    12    13   ar
     8    13    14   ar
     9    14     1    1
    10     1     2    1
    11     3     2    1
    12     3     4    1
    13     4     5    1
    14     5    19    1
    15    19    20   ar
    16    20    21   ar
    17    21    22   ar
    18    22    23   ar
    19    23    24   ar
    20    24    25    1
    21    25    26    1
    22    25    27    1
    23    25    28    1
    24     5     6    1
    25     7     6    1
    26     7     8    1
    27    14    15   ar
    28    15    10   ar
    29     8     1    1
    30     7     3    1
    31    24    19   ar
@<TRIPOS>MOLECULE
*****
 28 31 0 0 0
SMALL
GASTEIGER

@<TRIPOS>ATOM
      1 N          64.2837   88.5639   13.9108 N.pl3   1  UNL1       -0.2782
      2 C          64.5974   87.4648   14.8822 C.3     1  UNL1        0.0936
      3 C          64.0031   86.1938   14.3515 C.3     1  UNL1        0.0218
      4 C          63.8296   84.7290   14.6239 C.3     1  UNL1        0.0061
      5 C          63.0415   84.1373   13.4930 C.3     1  UNL1        0.0224
      6 C          62.7279   85.2366   12.5217 C.3     1  UNL1        0.0061
      7 C          63.3222   86.5075   13.0523 C.3     1  UNL1        0.0218
      8 C          63.4957   87.9723   12.7799 C.3     1  UNL1        0.0936
      9 C          65.2831   92.6945   16.9008 C.3     1  UNL1        0.0522
     10 C          65.1870   92.0675   15.5415 C.ar    1  UNL1        0.0638
     11 C          65.4946   92.8788   14.3179 C.ar    1  UNL1        0.0351
     12 CA         65.3986   92.2519   12.9586 C.ar    1  UNL1        0.0993
     13 N          64.9950   90.8135   12.8230 N.ar    1  UNL1       -0.2125
     14 C          64.6874   90.0022   14.0466 C.ar    1  UNL1        0.2198
     15 N          64.7834   90.6292   15.4058 N.ar    1  UNL1       -0.2180
     16 C          65.7062   93.0631   11.7350 C.2     1  UNL1        0.0906
     17 O          66.7811   94.1084   11.7790 O.co2   1  UNL1       -0.5430
     18 OXT        64.9389   92.8291   10.4676 O.co2   1  UNL1       -0.5430
     19 C          62.6379   82.6991   13.3573 C.ar    1  UNL1       -0.0186
     20 C          61.6950   82.0878   14.3508 C.ar    1  UNL1       -0.0043
     21 C          61.2913   80.6494   14.2151 C.ar    1  UNL1       -0.0003
     22 C          61.8306   79.8225   13.0858 C.ar    1  UNL1       -0.0001
     23 C          62.7736   80.4339   12.0922 C.ar    1  UNL1        0.0035
     24 C          63.1772   81.8721   12.2279 C.ar    1  UNL1        0.0675
     25 C          64.1201   82.4835   11.2344 C.3     1  UNL1        0.4183
     26 F          65.0630   83.0949   10.2409 F       1  UNL1       -0.1659
     27 F          62.9715   82.7466   10.3062 F       1  UNL1       -0.1659
     28 F          65.2687   82.2204   12.1626 F       1  UNL1       -0.1659
@<TRIPOS>UNITY_ATOM_ATTR
17 1
charge -1
@<TRIPOS>BOND
     1     9    10    1
     2    10    11   ar
     3    11    12   ar
     4    12    16    1
     5    16    17   ar
     6    16    18   ar
     7    12    13   ar
     8    13    14   ar
     9    14     1    1
    10     1     2    1
    11     3     2    1
    12     3     4    1
    13     4     5    1
    14     5    19    1
    15    19    20   ar
    16    20    21   ar
    17    21    22   ar
    18    22    23   ar
    19    23    24   ar
    20    24    25    1
    21    25    26    1
    22    25    27    1
    23    25    28    1
    24     5     6    1
    25     7     6    1
    26     7     8    1
    27    14    15   ar
    28    15    10   ar
    29     8     1    1
    30     7     3    1
    31    24    19   ar
@<TRIPOS>MOLECULE
*****
 28 31 0 0 0
SMALL
GASTEIGER

@<TRIPOS>ATOM
      1 N          59.9975   94.1351   -0.0615 N.pl3   1  UNL1       -0.2782
      2 C          58.9085   93.1652   -0.4126 C.3     1  UNL1        0.0936
      3 C          57.7627   93.9433   -0.9885 C.3     1  UNL1        0.0218
      4 C          56.3815   93.8248   -1.5614 C.3     1  UNL1        0.0061
      5 C          55.9087   95.2024   -1.9203 C.3     1  UNL1        0.0224
      6 C          56.9978   96.1723   -1.5692 C.3     1  UNL1        0.0061
      7 C          58.1436   95.3942   -0.9933 C.3     1  UNL1        0.0218
      8 C          59.5248   95.5127   -0.4204 C.3     1  UNL1        0.0936
      9 C          65.1482   94.7849    0.1579 C.3     1  UNL1        0.0522
     10 C          63.9014   94.1133    0.6522 C.ar    1  UNL1        0.0638
     11 C          63.9831   93.0948    1.7504 C.ar    1  UNL1        0.0351
     12 CA         62.7363   92.4232    2.2447 C.ar    1  UNL1        0.0993
     13 N          61.4078   92.7700    1.6407 N.ar    1  UNL1       -0.2125
     14 C          61.3260   93.7884    0.5424 C.ar    1  UNL1        0.2198
     15 N          62.5728   94.4601    0.0482 N.ar    1  UNL1       -0.2180
     16 C          62.8180   91.4047    3.3429 C.2     1  UNL1        0.0906
     17 O          63.9615   90.4349    3.3828 O.co2   1  UNL1       -0.5430
     18 OXT        61.7561   91.3561    4.4012 O.co2   1  UNL1       -0.5430
     19 C          54.5802   95.5491   -2.5242 C.ar    1  UNL1       -0.0186
     20 C          53.3949   95.7951   -1.6385 C.ar    1  UNL1       -0.0043
     21 C          52.0664   96.1418   -2.2424 C.ar    1  UNL1       -0.0003
     22 C          51.9231   96.2426   -3.7321 C.ar    1  UNL1       -0.0001
     23 C          53.1085   95.9967   -4.6180 C.ar    1  UNL1        0.0035
     24 C          54.4369   95.6499   -4.0140 C.ar    1  UNL1        0.0675
     25 C          55.6222   95.4040   -4.8998 C.3     1  UNL1        0.4183
     26 F          56.8075   95.1580   -5.7855 F       1  UNL1       -0.1659
     27 F          55.2491   93.9544   -4.9965 F       1  UNL1       -0.1659
     28 F          55.9953   96.8536   -4.8030 F       1  UNL1       -0.1659
@<TRIPOS>UNITY_ATOM_ATTR
17 1
charge -1
@<TRIPOS>BOND
     1     9    10    1
     2    10    11   ar
     3    11    12   ar
     4    12    16    1
     5    16    17   ar
     6    16    18   ar
     7    12    13   ar
     8    13    14   ar
     9    14     1    1
    10     1     2    1
    11     3     2    1
    12     3     4    1
    13     4     5    1
    14     5    19    1
    15    19    20   ar
    16    20    21   ar
    17    21    22   ar
    18    22    23   ar
    19    23    24   ar
    20    24    25    1
    21    25    26    1
    22    25    27    1
    23    25    28    1
    24     5     6    1
    25     7     6    1
    26     7     8    1
    27    14    15   ar
    28    15    10   ar
    29     8     1    1
    30     7     3    1
    31    24    19   ar
@<TRIPOS>MOLECULE
*****
 28 31 0 0 0
SMALL
GASTEIGER

@<TRIPOS>ATOM
      1 N          63.6176   87.1956   13.1254 N.pl3   1  UNL1       -0.2782
      2 C          64.2533   86.0091   13.7872 C.3     1  UNL1        0.0936
      3 C          63.8241   84.7788   13.0441 C.3     1  UNL1        0.0218
      4 C          63.9518   83.2851   12.9938 C.3     1  UNL1        0.0061
      5 C          63.1297   82.7881   11.8417 C.3     1  UNL1        0.0224
      6 C          62.4939   83.9747   11.1800 C.3     1  UNL1        0.0061
      7 C          62.9231   85.2050   11.9231 C.3     1  UNL1        0.0218
      8 C          62.7955   86.6987   11.9734 C.3     1  UNL1        0.0936
      9 C          63.5816   90.8321   16.8368 C.3     1  UNL1        0.0522
     10 C          63.7581   90.4460   15.3982 C.ar    1  UNL1        0.0638
     11 C          64.0931   91.4920   14.3766 C.ar    1  UNL1        0.0351
     12 CA         64.2696   91.1059   12.9379 C.ar    1  UNL1        0.0993
     13 N          64.1111   89.6737   12.5209 N.ar    1  UNL1       -0.2125
     14 C          63.7761   88.6277   13.5425 C.ar    1  UNL1        0.2198
     15 N          63.5995   89.0138   14.9812 N.ar    1  UNL1       -0.2180
     16 C          64.6046   92.1518   11.9163 C.2     1  UNL1        0.0906
     17 O          63.9100   92.1511   10.5868 O.co2   1  UNL1       -0.5430
     18 OXT        65.6341   93.1984   12.2241 O.co2   1  UNL1       -0.5430
     19 C          62.9712   81.3560   11.4246 C.ar    1  UNL1       -0.0186
     20 C          63.2489   80.9526   10.0069 C.ar    1  UNL1       -0.0043
     21 C          63.0904   79.5205    9.5897 C.ar    1  UNL1       -0.0003
     22 C          62.6542   78.4918   10.5904 C.ar    1  UNL1       -0.0001
     23 C          62.3764   78.8952   12.0083 C.ar    1  UNL1        0.0035
     24 C          62.5349   80.3272   12.4253 C.ar    1  UNL1        0.0675
     25 C          62.2572   80.7306   13.8431 C.3     1  UNL1        0.4183
     26 F          61.9795   81.1340   15.2609 F       1  UNL1       -0.1659
     27 F          63.6601   80.3600   14.2234 F       1  UNL1       -0.1659
     28 F          60.8543   81.1012   13.4629 F       1  UNL1       -0.1659
@<TRIPOS>UNITY_ATOM_ATTR
17 1
charge -1
@<TRIPOS>BOND
     1     9    10    1
     2    10    11   ar
     3    11    12   ar
     4    12    16    1
     5    16    17   ar
     6    16    18   ar
     7    12    13   ar
     8    13    14   ar
     9    14     1    1
    10     1     2    1
    11     3     2    1
    12     3     4    1
    13     4     5    1
    14     5    19    1
    15    19    20   ar
    16    20    21   ar
    17    21    22   ar
    18    22    23   ar
    19    23    24   ar
    20    24    25    1
    21    25    26    1
    22    25    27    1
    23    25    28    1
    24     5     6    1
    25     7     6    1
    26     7     8    1
    27    14    15   ar
    28    15    10   ar
    29     8     1    1
    30     7     3    1
    31    24    19   ar
@<TRIPOS>MOLECULE
*****
 28 31 0 0 0
SMALL
GASTEIGER

@<TRIPOS>ATOM
      1 N          64.5310   88.4232   14.5110 N.pl3   1  UNL1       -0.2782
      2 C          63.6863   88.0073   13.3434 C.3     1  UNL1        0.0936
      3 C          63.5744   86.5116   13.3616 C.3     1  UNL1        0.0218
      4 C          62.9832   85.3301   12.6513 C.3     1  UNL1        0.0061
      5 C          63.3934   84.0914   13.3912 C.3     1  UNL1        0.0224
      6 C          64.2382   84.5074   14.5589 C.3     1  UNL1        0.0061
      7 C          64.3501   86.0031   14.5406 C.3     1  UNL1        0.0218
      8 C          64.9413   87.1845   15.2509 C.3     1  UNL1        0.0936
      9 C          63.5035   92.8274   17.0696 C.3     1  UNL1        0.0522
     10 C          64.3870   92.0328   16.1542 C.ar    1  UNL1        0.0638
     11 C          65.6400   92.6456   15.6026 C.ar    1  UNL1        0.0351
     12 CA         66.5234   91.8510   14.6871 C.ar    1  UNL1        0.0993
     13 N          66.1537   90.4435   14.3233 N.ar    1  UNL1       -0.2125
     14 C          64.9007   89.8306   14.8749 C.ar    1  UNL1        0.2198
     15 N          64.0172   90.6253   15.7903 N.ar    1  UNL1       -0.2180
     16 C          67.7765   92.4637   14.1355 C.2     1  UNL1        0.0906
     17 O          68.5183   93.4976   14.9298 O.co2   1  UNL1       -0.5430
     18 OXT        68.2879   92.0425   12.7897 O.co2   1  UNL1       -0.5430
     19 C          63.0238   82.6840   13.0273 C.ar    1  UNL1       -0.0186
     20 C          62.4830   81.7560   14.0744 C.ar    1  UNL1       -0.0043
     21 C          62.1134   80.3485   13.7106 C.ar    1  UNL1       -0.0003
     22 C          62.2846   79.8690   12.2997 C.ar    1  UNL1       -0.0001
     23 C          62.8254   80.7970   11.2525 C.ar    1  UNL1        0.0035
     24 C          63.1950   82.2044   11.6164 C.ar    1  UNL1        0.0675
     25 C          63.7359   83.1324   10.5693 C.3     1  UNL1        0.4183
     26 F          64.2767   84.0603    9.5223 F       1  UNL1       -0.1659
     27 F          65.1253   82.6441   10.8543 F       1  UNL1       -0.1659
     28 F          62.3465   83.6206   10.2843 F       1  UNL1       -0.1659
@<TRIPOS>UNITY_ATOM_ATTR
17 1
charge -1
@<TRIPOS>BOND
     1     9    10    1
     2    10    11   ar
     3    11    12   ar
     4    12    16    1
     5    16    17   ar
     6    16    18   ar
     7    12    13   ar
     8    13    14   ar
     9    14     1    1
    10     1     2    1
    11     3     2    1
    12     3     4    1
    13     4     5    1
    14     5    19    1
    15    19    20   ar
    16    20    21   ar
    17    21    22   ar
    18    22    23   ar
    19    23    24   ar
    20    24    25    1
    21    25    26    1
    22    25    27    1
    23    25    28    1
    24     5     6    1
    25     7     6    1
    26     7     8    1
    27    14    15   ar
    28    15    10   ar
    29     8     1    1
    30     7     3    1
    31    24    19   ar
@<TRIPOS>MOLECULE
*****
 28 31 0 0 0
SMALL
GASTEIGER

@<TRIPOS>ATOM
      1 N          63.4153   87.1660   12.6244 N.pl3   1  UNL1       -0.2782
      2 C          62.7543   86.5817   11.4113 C.3     1  UNL1        0.0936
      3 C          62.8515   85.0878   11.5048 C.3     1  UNL1        0.0218
      4 C          62.5031   83.8033   10.8129 C.3     1  UNL1        0.0061
      5 C          63.0089   82.6705   11.6561 C.3     1  UNL1        0.0224
      6 C          63.6699   83.2549   12.8692 C.3     1  UNL1        0.0061
      7 C          63.5726   84.7488   12.7757 C.3     1  UNL1        0.0218
      8 C          63.9211   86.0332   13.4676 C.3     1  UNL1        0.0936
      9 C          63.8992   92.0873   11.0285 C.3     1  UNL1        0.0522
     10 C          63.7893   91.0873   12.1411 C.ar    1  UNL1        0.0638
     11 C          63.8115   91.5480   13.5684 C.ar    1  UNL1        0.0351
     12 CA         63.7016   90.5481   14.6811 C.ar    1  UNL1        0.0993
     13 N          63.5695   89.0874   14.3663 N.ar    1  UNL1       -0.2125
     14 C          63.5474   88.6267   12.9390 C.ar    1  UNL1        0.2198
     15 N          63.6572   89.6266   11.8264 N.ar    1  UNL1       -0.2180
     16 C          63.7238   91.0087   16.1084 C.2     1  UNL1        0.0906
     17 O          64.3409   92.3297   16.4606 O.co2   1  UNL1       -0.5430
     18 OXT        63.1288   90.1484   17.1835 O.co2   1  UNL1       -0.5430
     19 C          62.8768   81.2099   11.3415 C.ar    1  UNL1       -0.0186
     20 C          63.1059   80.7203    9.9422 C.ar    1  UNL1       -0.0043
     21 C          62.9739   79.2596    9.6275 C.ar    1  UNL1       -0.0003
     22 C          62.6128   78.2885   10.7122 C.ar    1  UNL1       -0.0001
     23 C          62.3837   78.7780   12.1115 C.ar    1  UNL1        0.0035
     24 C          62.5157   80.2386   12.4261 C.ar    1  UNL1        0.0675
     25 C          62.2867   80.7282   13.8253 C.3     1  UNL1        0.4183
     26 F          62.0576   81.2177   15.2246 F       1  UNL1       -0.1659
     27 F          60.8693   81.0707   13.4735 F       1  UNL1       -0.1659
     28 F          63.7040   80.3856   14.1772 F       1  UNL1       -0.1659
@<TRIPOS>UNITY_ATOM_ATTR
17 1
charge -1
@<TRIPOS>BOND
     1     9    10    1
     2    10    11   ar
     3    11    12   ar
     4    12    16    1
     5    16    17   ar
     6    16    18   ar
     7    12    13   ar
     8    13    14   ar
     9    14     1    1
    10     1     2    1
    11     3     2    1
    12     3     4    1
    13     4     5    1
    14     5    19    1
    15    19    20   ar
    16    20    21   ar
    17    21    22   ar
    18    22    23   ar
    19    23    24   ar
    20    24    25    1
    21    25    26    1
    22    25    27    1
    23    25    28    1
    24     5     6    1
    25     7     6    1
    26     7     8    1
    27    14    15   ar
    28    15    10   ar
    29     8     1    1
    30     7     3    1
    31    24    19   ar
