@<TRIPOS>MOLECULE
*****
 37 40 0 0 0
SMALL
GASTEIGER

@<TRIPOS>ATOM
      1 C          65.9786   94.1995   11.2811 C.ar    1  UNL1        0.1973
      2 O          65.0952   93.3323   10.4340 O.2     1  UNL1       -0.4318
      3 C          64.6417   92.1739   11.2720 C.ar    1  UNL1        0.2310
      4 N          63.7574   91.0009   10.9685 N.ar    1  UNL1       -0.2113
      5 C          63.4764   89.9791   12.0300 C.ar    1  UNL1        0.0852
      6 C          64.0795   90.1303   13.3951 C.ar    1  UNL1        0.0180
      7 C          64.9637   91.3033   13.6986 C.ar    1  UNL1        0.0075
      8 C          65.2448   92.3251   12.6371 C.ar    1  UNL1        0.0702
      9 C          66.0711   93.5770   12.6427 C.ar    1  UNL1        0.0929
     10 C          62.5921   88.8060   11.7265 C.ar    1  UNL1        0.0283
     11 C          63.1708   87.4230   11.6791 C.ar    1  UNL1        0.0023
     12 C          62.2865   86.2499   11.3756 C.ar    1  UNL1        0.0001
     13 C          60.8235   86.4600   11.1195 C.ar    1  UNL1        0.0009
     14 C          60.2448   87.8431   11.1669 C.ar    1  UNL1        0.0114
     15 C          61.1291   89.0161   11.4704 C.ar    1  UNL1        0.0591
     16 CL         60.5504   90.3992   11.5178 Cl      1  UNL1       -0.0822
     17 C          63.7984   89.1084   14.4566 C.ar    1  UNL1        0.0015
     18 C          63.0388   89.4978   15.6901 C.ar    1  UNL1        0.0009
     19 C          62.7577   88.4760   16.7516 C.ar    1  UNL1        0.0114
     20 C          63.2361   87.0647   16.5797 C.ar    1  UNL1        0.0577
     21 CL         62.9549   86.0429   17.6412 Cl      1  UNL1       -0.0822
     22 C          63.9956   86.6753   15.3462 C.ar    1  UNL1        0.0114
     23 C          64.2767   87.6972   14.2847 C.ar    1  UNL1        0.0009
     24 N          66.8526   94.1123   13.8057 N.am    1  UNL1       -0.2793
     25 C          67.8714   93.2473   14.4866 C.2     1  UNL1        0.2561
     26 O          68.1087   91.8468   14.0046 O.2     1  UNL1       -0.2721
     27 H          66.6969   95.0315   14.1221 H       1  UNL1        0.1550
     28 C          68.6529   93.7827   15.6497 C.3     1  UNL1        0.2232
     29 O          69.4257   92.8451   16.5293 O.3     1  UNL1       -0.3737
     30 H          68.8098   92.2633   17.0016 H       1  UNL1        0.2111
     31 C          66.6515   95.4667   10.8435 C.2     1  UNL1        0.2322
     32 O          66.6923   96.6506   11.7636 O.2     1  UNL1       -0.2856
     33 C          66.5867   96.8556    9.2415 C.3     1  UNL1        0.0374
     34 C          67.2835   95.5500    9.4857 C.3     1  UNL1        0.1462
     35 C          67.9803   94.2443    9.7300 C.3     1  UNL1        0.0374
     36 O          67.9155   95.6333    8.1279 O.3     1  UNL1       -0.3793
     37 H          68.4766   94.8553    7.9841 H       1  UNL1        0.2108
@<TRIPOS>BOND
     1    33    34    1
     2    34    35    1
     3    34    36    1
     4    34    31    1
     5    31    32    2
     6    31     1    1
     7     1     2   ar
     8     2     3   ar
     9     3     4   ar
    10     4     5   ar
    11     5    10    1
    12    10    11   ar
    13    11    12   ar
    14    12    13   ar
    15    13    14   ar
    16    14    15   ar
    17    15    16    1
    18     5     6   ar
    19     6    17    1
    20    17    18   ar
    21    18    19   ar
    22    19    20   ar
    23    20    21    1
    24    20    22   ar
    25    22    23   ar
    26     6     7   ar
    27     7     8   ar
    28     8     9   ar
    29     9    24    1
    30    24    25   am
    31    25    26    2
    32    25    28    1
    33    28    29    1
    34     9     1   ar
    35     8     3   ar
    36    15    10   ar
    37    23    17   ar
    38    36    37    1
    39    24    27    1
    40    29    30    1
@<TRIPOS>MOLECULE
*****
 37 40 0 0 0
SMALL
GASTEIGER

@<TRIPOS>ATOM
      1 C          65.1467   90.8915   14.6288 C.ar    1  UNL1        0.1973
      2 O          65.1096   89.4730   15.1152 O.2     1  UNL1       -0.4318
      3 C          64.3878   88.6500   14.0898 C.ar    1  UNL1        0.2310
      4 N          64.0501   87.1897   14.0314 N.ar    1  UNL1       -0.2113
      5 C          63.3034   86.6391   12.8527 C.ar    1  UNL1        0.0852
      6 C          62.8943   87.5489   11.7325 C.ar    1  UNL1        0.0180
      7 C          63.2320   89.0092   11.7909 C.ar    1  UNL1        0.0075
      8 C          63.9787   89.5597   12.9695 C.ar    1  UNL1        0.0702
      9 C          64.4478   90.9450   13.3026 C.ar    1  UNL1        0.0929
     10 C          62.9657   85.1787   12.7943 C.ar    1  UNL1        0.0283
     11 C          63.0207   84.4480   11.4855 C.ar    1  UNL1        0.0023
     12 C          62.6830   82.9877   11.4271 C.ar    1  UNL1        0.0001
     13 C          62.2903   82.2581   12.6775 C.ar    1  UNL1        0.0009
     14 C          62.2354   82.9889   13.9863 C.ar    1  UNL1        0.0114
     15 C          62.5731   84.4492   14.0447 C.ar    1  UNL1        0.0591
     16 CL         62.5181   85.1799   15.3536 Cl      1  UNL1       -0.0822
     17 C          62.1476   86.9983   10.5538 C.ar    1  UNL1        0.0015
     18 C          62.8949   86.3295    9.4383 C.ar    1  UNL1        0.0009
     19 C          62.1482   85.7789    8.2596 C.ar    1  UNL1        0.0114
     20 C          60.6542   85.8971    8.1964 C.ar    1  UNL1        0.0577
     21 CL         59.9075   85.3465    7.0177 Cl      1  UNL1       -0.0822
     22 C          59.9069   86.5658    9.3119 C.ar    1  UNL1        0.0114
     23 C          60.6536   87.1164   10.4906 C.ar    1  UNL1        0.0009
     24 N          64.2522   92.1690   12.4579 N.am    1  UNL1       -0.2793
     25 C          65.3769   92.6814   11.6081 C.2     1  UNL1        0.2561
     26 O          66.6975   91.9699   11.6030 O.2     1  UNL1       -0.2721
     27 H          63.3855   92.6361   12.4612 H       1  UNL1        0.1550
     28 C          65.1814   93.9054   10.7634 C.3     1  UNL1        0.2232
     29 O          65.7051   95.2310   11.2310 O.3     1  UNL1       -0.3737
     30 H          65.2250   95.5054   12.0279 H       1  UNL1        0.2111
     31 C          65.7728   92.0525   15.3430 C.2     1  UNL1        0.2322
     32 O          65.0479   92.7147   16.4770 O.2     1  UNL1       -0.2856
     33 C          66.5187   93.8702   14.5434 C.3     1  UNL1        0.0374
     34 C          67.1237   92.5512   14.9232 C.3     1  UNL1        0.1462
     35 C          67.7286   91.2322   15.3030 C.3     1  UNL1        0.0374
     36 O          68.4747   93.0500   14.5035 O.3     1  UNL1       -0.3793
     37 H          69.1347   92.3533   14.6445 H       1  UNL1        0.2108
@<TRIPOS>BOND
     1    33    34    1
     2    34    35    1
     3    34    36    1
     4    34    31    1
     5    31    32    2
     6    31     1    1
     7     1     2   ar
     8     2     3   ar
     9     3     4   ar
    10     4     5   ar
    11     5    10    1
    12    10    11   ar
    13    11    12   ar
    14    12    13   ar
    15    13    14   ar
    16    14    15   ar
    17    15    16    1
    18     5     6   ar
    19     6    17    1
    20    17    18   ar
    21    18    19   ar
    22    19    20   ar
    23    20    21    1
    24    20    22   ar
    25    22    23   ar
    26     6     7   ar
    27     7     8   ar
    28     8     9   ar
    29     9    24    1
    30    24    25   am
    31    25    26    2
    32    25    28    1
    33    28    29    1
    34     9     1   ar
    35     8     3   ar
    36    15    10   ar
    37    23    17   ar
    38    36    37    1
    39    24    27    1
    40    29    30    1
@<TRIPOS>MOLECULE
*****
 37 40 0 0 0
SMALL
GASTEIGER

@<TRIPOS>ATOM
      1 C          61.6283   89.0106   10.4582 C.ar    1  UNL1        0.1973
      2 O          62.0387   90.2061    9.6505 O.2     1  UNL1       -0.4318
      3 C          63.1642   90.8880   10.3705 C.ar    1  UNL1        0.2310
      4 N          63.9661   92.1137   10.0473 N.ar    1  UNL1       -0.2113
      5 C          65.0533   92.5652   10.9769 C.ar    1  UNL1        0.0852
      6 C          65.3385   91.7911   12.2296 C.ar    1  UNL1        0.0180
      7 C          64.5366   90.5654   12.5528 C.ar    1  UNL1        0.0075
      8 C          63.4494   90.1138   11.6232 C.ar    1  UNL1        0.0702
      9 C          62.5002   88.9536   11.6774 C.ar    1  UNL1        0.0929
     10 C          65.8553   93.7910   10.6537 C.ar    1  UNL1        0.0283
     11 C          65.3823   95.1389   11.1112 C.ar    1  UNL1        0.0023
     12 C          66.1842   96.3647   10.7880 C.ar    1  UNL1        0.0001
     13 C          67.4592   96.2425   10.0073 C.ar    1  UNL1        0.0009
     14 C          67.9322   94.8945    9.5498 C.ar    1  UNL1        0.0114
     15 C          67.1302   93.6688    9.8730 C.ar    1  UNL1        0.0591
     16 CL         67.6032   92.3208    9.4155 Cl      1  UNL1       -0.0822
     17 C          66.4258   92.2427   13.1591 C.ar    1  UNL1        0.0015
     18 C          66.1157   93.2120   14.2611 C.ar    1  UNL1        0.0009
     19 C          67.2029   93.6636   15.1907 C.ar    1  UNL1        0.0114
     20 C          68.6002   93.1460   15.0182 C.ar    1  UNL1        0.0577
     21 CL         69.6874   93.5976   15.9477 Cl      1  UNL1       -0.0822
     22 C          68.9103   92.1767   13.9162 C.ar    1  UNL1        0.0114
     23 C          67.8230   91.7251   12.9866 C.ar    1  UNL1        0.0009
     24 N          62.4345   87.9181   12.7607 N.am    1  UNL1       -0.2793
     25 C          62.7750   86.4898   12.4545 C.2     1  UNL1        0.2561
     26 O          63.1814   86.0968   11.0651 O.2     1  UNL1       -0.2721
     27 H          62.1679   88.1760   13.6726 H       1  UNL1        0.1550
     28 C          62.7093   85.4543   13.5378 C.3     1  UNL1        0.2232
     29 O          63.4472   85.6686   14.8260 O.3     1  UNL1       -0.3737
     30 H          64.4022   85.6653   14.6560 H       1  UNL1        0.2111
     31 C          60.5376   88.0422   10.1081 C.2     1  UNL1        0.2322
     32 O          59.6269   87.5191   11.1790 O.2     1  UNL1       -0.2856
     33 C          59.8329   88.9554    8.3278 C.3     1  UNL1        0.0374
     34 C          60.3577   87.5969    8.6871 C.3     1  UNL1        0.1462
     35 C          60.8825   86.2384    9.0464 C.3     1  UNL1        0.0374
     36 O          60.1777   87.1516    7.2660 O.3     1  UNL1       -0.3793
     37 H          60.4588   86.2274    7.1787 H       1  UNL1        0.2108
@<TRIPOS>BOND
     1    33    34    1
     2    34    35    1
     3    34    36    1
     4    34    31    1
     5    31    32    2
     6    31     1    1
     7     1     2   ar
     8     2     3   ar
     9     3     4   ar
    10     4     5   ar
    11     5    10    1
    12    10    11   ar
    13    11    12   ar
    14    12    13   ar
    15    13    14   ar
    16    14    15   ar
    17    15    16    1
    18     5     6   ar
    19     6    17    1
    20    17    18   ar
    21    18    19   ar
    22    19    20   ar
    23    20    21    1
    24    20    22   ar
    25    22    23   ar
    26     6     7   ar
    27     7     8   ar
    28     8     9   ar
    29     9    24    1
    30    24    25   am
    31    25    26    2
    32    25    28    1
    33    28    29    1
    34     9     1   ar
    35     8     3   ar
    36    15    10   ar
    37    23    17   ar
    38    36    37    1
    39    24    27    1
    40    29    30    1
