@<TRIPOS>MOLECULE
*****
 45 51 0 0 0
SMALL
GASTEIGER

@<TRIPOS>ATOM
      1 C          61.1215   89.2917    9.8389 C.3     1  UNL1        0.0941
      2 C          60.4927   87.9601   10.1244 C.3     1  UNL1        0.0278
      3 C          59.6523   87.5812    8.9410 C.3     1  UNL1        0.0731
      4 N          59.7619   88.6786    7.9242 N.3     1  UNL1       -0.2646
      5 C          60.6699   89.7357    8.4792 C.3     1  UNL1        0.0816
      6 O          62.5710   91.3883   10.3421 O.2     1  UNL1       -0.2747
      7 C          62.0407   90.0467   10.7529 C.2     1  UNL1        0.2268
      8 N          62.4295   89.4600   12.0774 N.am    1  UNL1       -0.2870
      9 H          62.0814   88.5794   12.3470 H       1  UNL1        0.1546
     10 C          63.3486   90.2150   12.9914 C.2     1  UNL1        0.0320
     11 C          63.2821   89.9922   14.4732 C.2     1  UNL1        0.0122
     12 C          64.2013   90.7472   15.3871 C.2     1  UNL1        0.0216
     13 C          65.1869   91.7249   14.8191 C.2     1  UNL1        0.1008
     14 N          66.2123   92.6075   15.4670 N.2     1  UNL1       -0.1483
     15 N          66.9125   93.3756   14.3856 N.2     1  UNL1       -0.1483
     16 C          66.3199   92.9678   13.0693 C.2     1  UNL1        0.1008
     17 C          65.2534   91.9476   13.3373 C.2     1  UNL1        0.0223
     18 C          64.3343   91.1927   12.4234 C.3     1  UNL1        0.0706
     19 C          66.7230   93.4888   11.7217 C.ar    1  UNL1        0.0222
     20 C          67.5075   92.6185   10.7851 C.ar    1  UNL1        0.0222
     21 C          67.9106   93.1394    9.4375 C.ar    1  UNL1        0.0989
     22 N          67.5292   94.5306    9.0263 N.ar    1  UNL1       -0.2423
     23 C          66.7446   95.4009    9.9629 C.ar    1  UNL1        0.0989
     24 C          66.3415   94.8799   11.3105 C.ar    1  UNL1        0.0222
     25 C          59.0828   88.7128    6.5873 C.3     1  UNL1        0.1587
     26 C          58.6083   90.0179    6.0202 C.2     1  UNL1        0.2421
     27 O          57.2675   90.5634    6.4136 O.2     1  UNL1       -0.2734
     28 N          59.4745   90.7775    5.0597 N.am    1  UNL1       -0.2749
     29 C          59.0000   92.0826    4.4927 C.3     1  UNL1        0.1149
     30 C          59.8662   92.8423    3.5321 C.3     1  UNL1        0.1123
     31 N          61.2070   92.2969    3.1387 N.pl3   1  UNL1       -0.3041
     32 C          61.6815   90.9918    3.7057 C.3     1  UNL1        0.1123
     33 C          60.8153   90.2321    4.6662 C.3     1  UNL1        0.1149
     34 C          62.0732   93.0565    2.1782 C.ar    1  UNL1        0.0479
     35 C          61.4908   94.1757    1.3668 C.ar    1  UNL1        0.0146
     36 C          62.3571   94.9353    0.4063 C.ar    1  UNL1        0.0043
     37 C          63.8057   94.5758    0.2571 C.ar    1  UNL1        0.0359
     38 C          64.3881   93.4566    1.0686 C.ar    1  UNL1        0.0043
     39 C          63.5219   92.6970    2.0290 C.ar    1  UNL1        0.0146
     40 C          64.6719   95.3354   -0.7033 C.ar    1  UNL1        0.1623
     41 N          65.9030   96.0362   -0.2099 N.ar    1  UNL1       -0.2250
     42 C          66.7694   96.7959   -1.1703 C.ar    1  UNL1        0.1022
     43 C          66.4047   96.8546   -2.6242 C.ar    1  UNL1        0.0414
     44 C          65.1737   96.1538   -3.1176 C.ar    1  UNL1        0.1022
     45 N          64.3073   95.3942   -2.1571 N.ar    1  UNL1       -0.2250
@<TRIPOS>BOND
     1     6     7    2
     2     7     8   am
     3     8    10    1
     4    10    11    2
     5    11    12    1
     6    12    13    2
     7    13    14    1
     8    14    15    2
     9    15    16    1
    10    16    19    1
    11    19    20   ar
    12    20    21   ar
    13    21    22   ar
    14    22    23   ar
    15    23    24   ar
    16    16    17    2
    17    17    18    1
    18     1     7    1
    19     1     2    1
    20     2     3    1
    21     3     4    1
    22     4    25    1
    23    25    26    1
    24    26    27    2
    25    26    28   am
    26    28    29    1
    27    29    30    1
    28    30    31    1
    29    31    34    1
    30    34    35   ar
    31    35    36   ar
    32    36    37   ar
    33    37    40    1
    34    40    41   ar
    35    41    42   ar
    36    42    43   ar
    37    43    44   ar
    38    44    45   ar
    39    37    38   ar
    40    38    39   ar
    41    31    32    1
    42    32    33    1
    43     4     5    1
    44    18    10    1
    45     5     1    1
    46    17    13    1
    47    33    28    1
    48    24    19   ar
    49    39    34   ar
    50    45    40   ar
    51     8     9    1
@<TRIPOS>MOLECULE
*****
 45 51 0 0 0
SMALL
GASTEIGER

@<TRIPOS>ATOM
      1 C          60.3635   87.5678    8.8047 C.3     1  UNL1        0.0941
      2 C          59.3329   87.1432    7.8010 C.3     1  UNL1        0.0278
      3 C          58.9946   88.3331    6.9524 C.3     1  UNL1        0.0731
      4 N          59.8163   89.4929    7.4318 N.3     1  UNL1       -0.2646
      5 C          60.6623   89.0199    8.5766 C.3     1  UNL1        0.0816
      6 O          60.5027   86.7626   11.2710 O.2     1  UNL1       -0.2747
      7 C          60.9861   86.6936    9.8527 C.2     1  UNL1        0.2268
      8 N          62.0921   85.7504    9.4824 N.am    1  UNL1       -0.2870
      9 H          62.4094   85.7051    8.5515 H       1  UNL1        0.1546
     10 C          62.7147   84.8762   10.5304 C.2     1  UNL1        0.0320
     11 C          63.0997   83.4651   10.1980 C.2     1  UNL1        0.0122
     12 C          63.7223   82.5909   11.2460 C.2     1  UNL1        0.0216
     13 C          63.9598   83.1279   12.6263 C.2     1  UNL1        0.1008
     14 N          64.5510   82.5066   13.8570 N.2     1  UNL1       -0.1483
     15 N          64.5314   83.5337   14.9499 N.2     1  UNL1       -0.1483
     16 C          63.9280   84.7898   14.3947 C.2     1  UNL1        0.1008
     17 C          63.5747   84.5389   12.9586 C.2     1  UNL1        0.0223
     18 C          62.9522   85.4131   11.9107 C.3     1  UNL1        0.0706
     19 C          63.7152   86.0717   15.1440 C.ar    1  UNL1        0.0222
     20 C          63.0498   86.0531   16.4883 C.ar    1  UNL1        0.0222
     21 C          62.8371   87.3350   17.2376 C.ar    1  UNL1        0.0989
     22 N          63.2896   88.6355   16.6427 N.ar    1  UNL1       -0.2423
     23 C          63.9549   88.6541   15.2985 C.ar    1  UNL1        0.0989
     24 C          64.1677   87.3722   14.5491 C.ar    1  UNL1        0.0222
     25 C          59.7956   90.8818    6.8658 C.3     1  UNL1        0.1587
     26 C          59.0175   91.1711    5.6164 C.2     1  UNL1        0.2421
     27 O          57.5279   90.9951    5.6030 O.2     1  UNL1       -0.2734
     28 N          59.7288   91.6364    4.3806 N.am    1  UNL1       -0.2749
     29 C          58.9506   91.9257    3.1313 C.3     1  UNL1        0.1149
     30 C          59.6620   92.3910    1.8954 C.3     1  UNL1        0.1123
     31 N          61.1515   92.5671    1.9088 N.pl3   1  UNL1       -0.3041
     32 C          61.9297   92.2778    3.1581 C.3     1  UNL1        0.1123
     33 C          61.2183   91.8125    4.3940 C.3     1  UNL1        0.1149
     34 C          61.8629   93.0324    0.6729 C.ar    1  UNL1        0.0479
     35 C          63.2591   93.5722    0.7695 C.ar    1  UNL1        0.0146
     36 C          63.9705   94.0375   -0.4664 C.ar    1  UNL1        0.0043
     37 C          63.2857   93.9631   -1.7989 C.ar    1  UNL1        0.0359
     38 C          61.8894   93.4232   -1.8955 C.ar    1  UNL1        0.0043
     39 C          61.1781   92.9579   -0.6597 C.ar    1  UNL1        0.0146
     40 C          63.9969   94.4284   -3.0348 C.ar    1  UNL1        0.1623
     41 N          64.1096   93.5190   -4.2225 N.ar    1  UNL1       -0.2250
     42 C          64.8209   93.9842   -5.4585 C.ar    1  UNL1        0.1022
     43 C          65.4195   95.3588   -5.5068 C.ar    1  UNL1        0.0414
     44 C          65.3069   96.2681   -4.3191 C.ar    1  UNL1        0.1022
     45 N          64.5956   95.8029   -3.0831 N.ar    1  UNL1       -0.2250
@<TRIPOS>BOND
     1     6     7    2
     2     7     8   am
     3     8    10    1
     4    10    11    2
     5    11    12    1
     6    12    13    2
     7    13    14    1
     8    14    15    2
     9    15    16    1
    10    16    19    1
    11    19    20   ar
    12    20    21   ar
    13    21    22   ar
    14    22    23   ar
    15    23    24   ar
    16    16    17    2
    17    17    18    1
    18     1     7    1
    19     1     2    1
    20     2     3    1
    21     3     4    1
    22     4    25    1
    23    25    26    1
    24    26    27    2
    25    26    28   am
    26    28    29    1
    27    29    30    1
    28    30    31    1
    29    31    34    1
    30    34    35   ar
    31    35    36   ar
    32    36    37   ar
    33    37    40    1
    34    40    41   ar
    35    41    42   ar
    36    42    43   ar
    37    43    44   ar
    38    44    45   ar
    39    37    38   ar
    40    38    39   ar
    41    31    32    1
    42    32    33    1
    43     4     5    1
    44    18    10    1
    45     5     1    1
    46    17    13    1
    47    33    28    1
    48    24    19   ar
    49    39    34   ar
    50    45    40   ar
    51     8     9    1
@<TRIPOS>MOLECULE
*****
 45 51 0 0 0
SMALL
GASTEIGER

@<TRIPOS>ATOM
      1 C          59.9847   88.6788    8.3103 C.3     1  UNL1        0.0941
      2 C          59.0274   88.1157    7.3020 C.3     1  UNL1        0.0278
      3 C          58.7618   89.1747    6.2733 C.3     1  UNL1        0.0731
      4 N          59.5550   90.3922    6.6459 N.3     1  UNL1       -0.2646
      5 C          60.3107   90.0856    7.9048 C.3     1  UNL1        0.0816
      6 O          59.6999   87.8768   10.7650 O.2     1  UNL1       -0.2747
      7 C          60.5216   87.9609    9.5129 C.2     1  UNL1        0.2268
      8 N          61.8802   87.3270    9.4635 N.am    1  UNL1       -0.2870
      9 H          62.4195   87.3822    8.6417 H       1  UNL1        0.1546
     10 C          62.4171   86.6091   10.6661 C.2     1  UNL1        0.0320
     11 C          62.5338   85.1137   10.6568 C.2     1  UNL1        0.0122
     12 C          63.0707   84.3959   11.8594 C.2     1  UNL1        0.0216
     13 C          63.4910   85.1734   13.0714 C.2     1  UNL1        0.1008
     14 N          64.0526   84.7440   14.3944 N.2     1  UNL1       -0.1483
     15 N          64.2831   85.9740   15.2213 N.2     1  UNL1       -0.1483
     16 C          63.8638   87.1636   14.4094 C.2     1  UNL1        0.1008
     17 C          63.3743   86.6688   13.0807 C.2     1  UNL1        0.0223
     18 C          62.8374   87.3866   11.8781 C.3     1  UNL1        0.0706
     19 C          63.9236   88.5965   14.8490 C.ar    1  UNL1        0.0222
     20 C          63.3464   88.9993   16.1736 C.ar    1  UNL1        0.0222
     21 C          63.4062   90.4322   16.6133 C.ar    1  UNL1        0.0989
     22 N          64.0432   91.4623   15.7284 N.ar    1  UNL1       -0.2423
     23 C          64.6204   91.0595   14.4038 C.ar    1  UNL1        0.0989
     24 C          64.5606   89.6266   13.9641 C.ar    1  UNL1        0.0222
     25 C          59.5868   91.6885    5.8920 C.3     1  UNL1        0.1587
     26 C          58.8964   91.8017    4.5651 C.2     1  UNL1        0.2421
     27 O          57.4255   91.5272    4.4593 O.2     1  UNL1       -0.2734
     28 N          59.6767   92.1892    3.3442 N.am    1  UNL1       -0.2749
     29 C          58.9862   92.3024    2.0174 C.3     1  UNL1        0.1149
     30 C          59.7666   92.6900    0.7964 C.3     1  UNL1        0.1123
     31 N          61.2375   92.9644    0.9022 N.pl3   1  UNL1       -0.3041
     32 C          61.9279   92.8513    2.2290 C.3     1  UNL1        0.1123
     33 C          61.1476   92.4637    3.4500 C.3     1  UNL1        0.1149
     34 C          62.0178   93.3520   -0.3188 C.ar    1  UNL1        0.0479
     35 C          63.4260   93.8503   -0.1820 C.ar    1  UNL1        0.0146
     36 C          64.2064   94.2379   -1.4029 C.ar    1  UNL1        0.0043
     37 C          63.5786   94.1272   -2.7607 C.ar    1  UNL1        0.0359
     38 C          62.1703   93.6289   -2.8975 C.ar    1  UNL1        0.0043
     39 C          61.3900   93.2413   -1.6766 C.ar    1  UNL1        0.0146
     40 C          64.3589   94.5148   -3.9817 C.ar    1  UNL1        0.1623
     41 N          64.6416   95.9608   -4.2633 N.ar    1  UNL1       -0.2250
     42 C          65.4219   96.3485   -5.4843 C.ar    1  UNL1        0.1022
     43 C          65.9195   95.2901   -6.4237 C.ar    1  UNL1        0.0414
     44 C          65.6367   93.8442   -6.1421 C.ar    1  UNL1        0.1022
     45 N          64.8564   93.4565   -4.9211 N.ar    1  UNL1       -0.2250
@<TRIPOS>BOND
     1     6     7    2
     2     7     8   am
     3     8    10    1
     4    10    11    2
     5    11    12    1
     6    12    13    2
     7    13    14    1
     8    14    15    2
     9    15    16    1
    10    16    19    1
    11    19    20   ar
    12    20    21   ar
    13    21    22   ar
    14    22    23   ar
    15    23    24   ar
    16    16    17    2
    17    17    18    1
    18     1     7    1
    19     1     2    1
    20     2     3    1
    21     3     4    1
    22     4    25    1
    23    25    26    1
    24    26    27    2
    25    26    28   am
    26    28    29    1
    27    29    30    1
    28    30    31    1
    29    31    34    1
    30    34    35   ar
    31    35    36   ar
    32    36    37   ar
    33    37    40    1
    34    40    41   ar
    35    41    42   ar
    36    42    43   ar
    37    43    44   ar
    38    44    45   ar
    39    37    38   ar
    40    38    39   ar
    41    31    32    1
    42    32    33    1
    43     4     5    1
    44    18    10    1
    45     5     1    1
    46    17    13    1
    47    33    28    1
    48    24    19   ar
    49    39    34   ar
    50    45    40   ar
    51     8     9    1
@<TRIPOS>MOLECULE
*****
 45 51 0 0 0
SMALL
GASTEIGER

@<TRIPOS>ATOM
      1 C          63.3501   85.9278   15.3942 C.3     1  UNL1        0.0941
      2 C          62.3431   85.0926   16.1280 C.3     1  UNL1        0.0278
      3 C          62.3280   83.7291   15.5029 C.3     1  UNL1        0.0731
      4 N          63.3257   83.7217   14.3828 N.3     1  UNL1       -0.2646
      5 C          63.9574   85.0805   14.3156 C.3     1  UNL1        0.0816
      6 O          63.4653   87.9168   17.0617 O.2     1  UNL1       -0.2747
      7 C          63.6901   87.3590   15.6875 C.2     1  UNL1        0.2268
      8 N          64.2548   88.2324   14.6067 N.am    1  UNL1       -0.2870
      9 H          64.4024   87.8664   13.7048 H       1  UNL1        0.1546
     10 C          64.5948   89.6637   14.9001 C.2     1  UNL1        0.0320
     11 C          64.2047   90.2731   16.2140 C.2     1  UNL1        0.0122
     12 C          64.5447   91.7043   16.5072 C.2     1  UNL1        0.0216
     13 C          65.2748   92.5261   15.4866 C.2     1  UNL1        0.1008
     14 N          65.7419   93.9516   15.4934 N.2     1  UNL1       -0.1483
     15 N          66.4207   94.2231   14.1836 N.2     1  UNL1       -0.1483
     16 C          66.3731   92.9654   13.3674 C.2     1  UNL1        0.1008
     17 C          65.6650   91.9166   14.1728 C.2     1  UNL1        0.0223
     18 C          65.3250   90.4855   13.8795 C.3     1  UNL1        0.0706
     19 C          66.9351   92.7877   11.9881 C.ar    1  UNL1        0.0222
     20 C          68.0394   91.8010   11.7495 C.ar    1  UNL1        0.0222
     21 C          68.6014   91.6233   10.3702 C.ar    1  UNL1        0.0989
     22 N          68.0591   92.4323    9.2294 N.ar    1  UNL1       -0.2423
     23 C          66.9548   93.4190    9.4680 C.ar    1  UNL1        0.0989
     24 C          66.3929   93.5967   10.8473 C.ar    1  UNL1        0.0222
     25 C          63.6370   82.5595   13.4872 C.3     1  UNL1        0.1587
     26 C          64.0287   82.7971   12.0588 C.2     1  UNL1        0.2421
     27 O          65.1631   82.0244   11.4538 O.2     1  UNL1       -0.2734
     28 N          63.2860   83.8072   11.2355 N.am    1  UNL1       -0.2749
     29 C          63.6777   84.0447    9.8072 C.3     1  UNL1        0.1149
     30 C          62.9350   85.0549    8.9838 C.3     1  UNL1        0.1123
     31 N          61.8006   85.8276    9.5888 N.pl3   1  UNL1       -0.3041
     32 C          61.4088   85.5901   11.0171 C.3     1  UNL1        0.1123
     33 C          62.1516   84.5799   11.8404 C.3     1  UNL1        0.1149
     34 C          61.0578   86.8378    8.7654 C.ar    1  UNL1        0.0479
     35 C          61.0899   88.2876    9.1489 C.ar    1  UNL1        0.0146
     36 C          60.3472   89.2977    8.3255 C.ar    1  UNL1        0.0043
     37 C          59.5724   88.8582    7.1187 C.ar    1  UNL1        0.0359
     38 C          59.5403   87.4082    6.7353 C.ar    1  UNL1        0.0043
     39 C          60.2830   86.3981    7.5586 C.ar    1  UNL1        0.0146
     40 C          58.8297   89.8682    6.2954 C.ar    1  UNL1        0.1623
     41 N          57.3309   89.8363    6.2421 N.ar    1  UNL1       -0.2250
     42 C          56.5880   90.8464    5.4187 C.ar    1  UNL1        0.1022
     43 C          57.3440   91.8884    4.6486 C.ar    1  UNL1        0.0414
     44 C          58.8427   91.9202    4.7019 C.ar    1  UNL1        0.1022
     45 N          59.5855   90.9102    5.5253 N.ar    1  UNL1       -0.2250
@<TRIPOS>BOND
     1     6     7    2
     2     7     8   am
     3     8    10    1
     4    10    11    2
     5    11    12    1
     6    12    13    2
     7    13    14    1
     8    14    15    2
     9    15    16    1
    10    16    19    1
    11    19    20   ar
    12    20    21   ar
    13    21    22   ar
    14    22    23   ar
    15    23    24   ar
    16    16    17    2
    17    17    18    1
    18     1     7    1
    19     1     2    1
    20     2     3    1
    21     3     4    1
    22     4    25    1
    23    25    26    1
    24    26    27    2
    25    26    28   am
    26    28    29    1
    27    29    30    1
    28    30    31    1
    29    31    34    1
    30    34    35   ar
    31    35    36   ar
    32    36    37   ar
    33    37    40    1
    34    40    41   ar
    35    41    42   ar
    36    42    43   ar
    37    43    44   ar
    38    44    45   ar
    39    37    38   ar
    40    38    39   ar
    41    31    32    1
    42    32    33    1
    43     4     5    1
    44    18    10    1
    45     5     1    1
    46    17    13    1
    47    33    28    1
    48    24    19   ar
    49    39    34   ar
    50    45    40   ar
    51     8     9    1
