@<TRIPOS>MOLECULE
*****
 35 40 0 0 0
SMALL
GASTEIGER

@<TRIPOS>ATOM
      1 O          64.1635   87.6347   13.6194 O.2     1  UNL1       -0.2745
      2 C          63.2636   86.9386   12.6417 C.2     1  UNL1        0.2292
      3 N          62.5673   87.7259   11.5716 N.am    1  UNL1       -0.2530
      4 C          61.6912   86.9340   10.6467 C.3     1  UNL1        0.1275
      5 C          60.8706   87.4215    9.4896 C.ar    1  UNL1        0.0297
      6 C          60.1370   86.2948    8.8247 C.ar    1  UNL1        0.0018
      7 C          59.2560   86.5680    7.6418 C.ar    1  UNL1        0.0205
      8 C          59.1087   87.9680    7.1238 C.ar    1  UNL1        0.1003
      9 N          59.8423   89.0948    7.7887 N.ar    1  UNL1       -0.2294
     10 C          60.7232   88.8215    8.9716 C.ar    1  UNL1        0.1297
     11 N          61.3602   90.0797    9.4828 N.pl3   1  UNL1       -0.2972
     12 C          62.3018   90.2487   10.6382 C.ar    1  UNL1        0.0633
     13 C          62.7052   91.6830   10.8112 C.ar    1  UNL1        0.0172
     14 C          63.6457   92.0698   11.9138 C.ar    1  UNL1        0.0159
     15 C          64.1829   91.0223   12.8434 C.ar    1  UNL1        0.0493
     16 C          63.7795   89.5879   12.6703 C.ar    1  UNL1        0.0307
     17 C          62.8390   89.2011   11.5678 C.ar    1  UNL1        0.0688
     18 H          61.1298   90.9036    8.9956 H       1  UNL1        0.1536
     19 C          63.0602   85.4554   12.7341 C.3     1  UNL1        0.0777
     20 C          62.5287   84.9516   14.0432 C.3     1  UNL1        0.0138
     21 C          62.2209   83.5401   14.4466 C.3     1  UNL1        0.0265
     22 C          62.3686   82.2837   13.6407 C.ar    1  UNL1       -0.0261
     23 C          61.9465   81.0767   14.4249 C.ar    1  UNL1       -0.0046
     24 C          62.0163   79.7146   13.8007 C.ar    1  UNL1       -0.0003
     25 C          62.5083   79.5594   12.3923 C.ar    1  UNL1       -0.0003
     26 C          62.9305   80.7663   11.6080 C.ar    1  UNL1       -0.0046
     27 C          62.8607   82.1285   12.2322 C.ar    1  UNL1       -0.0261
     28 C          63.3265   83.1913   11.2818 C.3     1  UNL1        0.0265
     29 C          63.4153   84.6720   11.5051 C.3     1  UNL1        0.0138
     30 N          65.1235   91.4091   13.9459 N.pl3   1  UNL1       -0.3027
     31 C          64.5910   91.7056   15.3165 C.3     1  UNL1        0.1231
     32 C          65.5316   92.0924   16.4191 C.3     1  UNL1        0.1636
     33 O          67.0046   92.1827   16.1511 O.3     1  UNL1       -0.3501
     34 C          67.5372   91.8863   14.7805 C.3     1  UNL1        0.1636
     35 C          66.5966   91.4995   13.6779 C.3     1  UNL1        0.1231
@<TRIPOS>BOND
     1     1     2    2
     2     2    19    1
     3    19    20    1
     4    20    21    1
     5    21    22    1
     6    22    23   ar
     7    23    24   ar
     8    24    25   ar
     9    25    26   ar
    10    26    27   ar
    11    27    28    1
    12    28    29    1
    13     2     3   am
    14     3     4    1
    15     4     5    1
    16     5     6   ar
    17     6     7   ar
    18     7     8   ar
    19     8     9   ar
    20     9    10   ar
    21    10    11    1
    22    11    12    1
    23    12    13   ar
    24    13    14   ar
    25    14    15   ar
    26    15    30    1
    27    30    31    1
    28    31    32    1
    29    32    33    1
    30    33    34    1
    31    34    35    1
    32    15    16   ar
    33    16    17   ar
    34    29    19    1
    35    17     3    1
    36    27    22   ar
    37    10     5   ar
    38    17    12   ar
    39    35    30    1
    40    11    18    1
@<TRIPOS>MOLECULE
*****
 35 40 0 0 0
SMALL
GASTEIGER

@<TRIPOS>ATOM
      1 O          61.6935   90.8440    9.2901 O.2     1  UNL1       -0.2745
      2 C          62.3474   90.0127   10.3539 C.2     1  UNL1        0.2292
      3 N          62.0962   88.5351   10.4112 N.am    1  UNL1       -0.2530
      4 C          62.7981   87.7977   11.5128 C.3     1  UNL1        0.1275
      5 C          62.7535   86.3333   11.8346 C.ar    1  UNL1        0.0297
      6 C          63.6061   86.0076   13.0250 C.ar    1  UNL1        0.0018
      7 C          63.7011   84.5931   13.5149 C.ar    1  UNL1        0.0205
      8 C          62.9435   83.5043   12.8145 C.ar    1  UNL1        0.1003
      9 N          62.0909   83.8300   11.6242 N.ar    1  UNL1       -0.2294
     10 C          61.9959   85.2445   11.1342 C.ar    1  UNL1        0.1297
     11 N          61.0958   85.3513    9.9390 N.pl3   1  UNL1       -0.2972
     12 C          60.7310   86.5730    9.1490 C.ar    1  UNL1        0.0633
     13 C          59.7969   86.2395    8.0238 C.ar    1  UNL1        0.0172
     14 C          59.3079   87.3228    7.1088 C.ar    1  UNL1        0.0159
     15 C          59.7531   88.7396    7.3189 C.ar    1  UNL1        0.0493
     16 C          60.6873   89.0733    8.4441 C.ar    1  UNL1        0.0307
     17 C          61.1762   87.9900    9.3592 C.ar    1  UNL1        0.0688
     18 H          60.6910   84.5078    9.6326 H       1  UNL1        0.1536
     19 C          63.2525   90.6592   11.3603 C.3     1  UNL1        0.0777
     20 C          64.2099   91.6773   10.8153 C.3     1  UNL1        0.0138
     21 C          65.2317   92.4896   11.5541 C.3     1  UNL1        0.0265
     22 C          65.5486   92.4847   13.0202 C.ar    1  UNL1       -0.0261
     23 C          66.6458   93.4538   13.3471 C.ar    1  UNL1       -0.0046
     24 C          67.1163   93.6044   14.7634 C.ar    1  UNL1       -0.0003
     25 C          66.4895   92.7857   15.8529 C.ar    1  UNL1       -0.0003
     26 C          65.3923   91.8166   15.5261 C.ar    1  UNL1       -0.0046
     27 C          64.9218   91.6660   14.1098 C.ar    1  UNL1       -0.0261
     28 C          63.8235   90.6502   14.0022 C.3     1  UNL1        0.0265
     29 C          63.0805   90.2021   12.7786 C.3     1  UNL1        0.0138
     30 N          59.2642   89.8229    6.4038 N.pl3   1  UNL1       -0.3027
     31 C          57.7917   90.0477    6.2272 C.3     1  UNL1        0.1231
     32 C          57.3028   91.1310    5.3121 C.3     1  UNL1        0.1636
     33 O          58.2863   91.9895    4.5736 O.3     1  UNL1       -0.3501
     34 C          59.7589   91.7648    4.7501 C.3     1  UNL1        0.1636
     35 C          60.2478   90.6815    5.6652 C.3     1  UNL1        0.1231
@<TRIPOS>BOND
     1     1     2    2
     2     2    19    1
     3    19    20    1
     4    20    21    1
     5    21    22    1
     6    22    23   ar
     7    23    24   ar
     8    24    25   ar
     9    25    26   ar
    10    26    27   ar
    11    27    28    1
    12    28    29    1
    13     2     3   am
    14     3     4    1
    15     4     5    1
    16     5     6   ar
    17     6     7   ar
    18     7     8   ar
    19     8     9   ar
    20     9    10   ar
    21    10    11    1
    22    11    12    1
    23    12    13   ar
    24    13    14   ar
    25    14    15   ar
    26    15    30    1
    27    30    31    1
    28    31    32    1
    29    32    33    1
    30    33    34    1
    31    34    35    1
    32    15    16   ar
    33    16    17   ar
    34    29    19    1
    35    17     3    1
    36    27    22   ar
    37    10     5   ar
    38    17    12   ar
    39    35    30    1
    40    11    18    1
