@<TRIPOS>MOLECULE
*****
 36 39 0 0 0
SMALL
GASTEIGER

@<TRIPOS>ATOM
      1 S          61.7391   89.2783   10.6553 S.O2    1  UNL1        0.0455
      2 O          60.7462   89.8440   11.6269 O.2     1  UNL1       -0.1572
      3 O          62.7320   88.7126    9.6837 O.2     1  UNL1       -0.1572
      4 C          64.8120   92.2469   12.0676 C.3     1  UNL1        0.0032
      5 C          64.2414   91.2445   13.0265 C.3     1  UNL1        0.0192
      6 C          63.2171   90.2550   12.5557 C.3     1  UNL1        0.0954
      7 N          62.7634   90.2679   11.1260 N.3     1  UNL1       -0.1594
      8 C          63.3340   91.2703   10.1671 C.3     1  UNL1        0.0954
      9 C          64.3583   92.2598   10.6379 C.3     1  UNL1        0.0192
     10 C          65.8363   93.2365   12.5383 C.3     1  UNL1        0.0049
     11 C          67.1346   93.3804   11.8009 C.3     1  UNL1        0.0305
     12 C          65.9615   96.3857   11.3096 C.3     1  UNL1        0.0553
     13 C          66.6451   95.5279   10.2864 C.ar    1  UNL1        0.0966
     14 N          66.9094   95.9009    8.8578 N.ar    1  UNL1       -0.0821
     15 O          67.6120   94.7500    8.2006 O.2     1  UNL1       -0.3584
     16 C          67.7818   93.6657    9.2231 C.ar    1  UNL1        0.1504
     17 C          68.4347   92.3344    8.9964 C.3     1  UNL1        0.0750
     18 C          67.1842   94.1465   10.5122 C.ar    1  UNL1        0.0274
     19 C          60.7148   88.2888   10.1846 C.3     1  UNL1        0.1896
     20 C          61.1208   86.8779    9.8768 C.3     1  UNL1        0.1132
     21 C          61.5948   86.9817   11.2962 C.3     1  UNL1        0.0440
     22 C          62.2612   85.8087   11.9520 C.3     1  UNL1        0.0952
     23 N          62.4536   84.5321   11.1883 N.am    1  UNL1       -0.2794
     24 C          63.1201   83.3591   11.8441 C.2     1  UNL1        0.2251
     25 O          63.3125   82.0824   11.0806 O.2     1  UNL1       -0.2749
     26 C          61.9796   84.4283    9.7690 C.3     1  UNL1        0.0952
     27 C          61.3132   85.6013    9.1133 C.3     1  UNL1        0.0440
     28 N          60.5058   87.2642    8.5644 N.am    1  UNL1       -0.1661
     29 O          60.6601   86.3684    7.3712 O.3     1  UNL1       -0.2915
     30 C          59.7364   88.5464    8.4451 C.2     1  UNL1        0.3268
     31 O          59.1214   88.9327    7.1327 O.2     1  UNL1       -0.2627
     32 H          61.1806   85.5880    7.6179 H       1  UNL1        0.2417
     33 C          63.5941   83.4628   13.2635 C.3     1  UNL1        0.0767
     34 C          63.0904   82.9723   14.5885 C.3     1  UNL1        0.0091
     35 C          64.2645   83.6096   15.2707 C.3     1  UNL1        0.0010
     36 C          64.7682   84.1002   13.9458 C.3     1  UNL1        0.0091
@<TRIPOS>BOND
     1    12    13    1
     2    13    14   ar
     3    14    15   ar
     4    15    16   ar
     5    16    17    1
     6    16    18   ar
     7    18    11    1
     8    11    10    1
     9    10     4    1
    10     4     5    1
    11     5     6    1
    12     6     7    1
    13     7     1    1
    14     1     2    2
    15     1     3    2
    16     1    19    1
    17    19    20    1
    18    20    28    1
    19    28    29    1
    20    28    30   am
    21    30    31    2
    22    20    21    1
    23    21    22    1
    24    22    23    1
    25    23    24   am
    26    24    25    2
    27    24    33    1
    28    33    34    1
    29    34    35    1
    30    35    36    1
    31    23    26    1
    32    26    27    1
    33     7     8    1
    34     8     9    1
    35    18    13   ar
    36     9     4    1
    37    27    20    1
    38    36    33    1
    39    29    32    1
@<TRIPOS>MOLECULE
*****
 36 39 0 0 0
SMALL
GASTEIGER

@<TRIPOS>ATOM
      1 S          61.5893   89.2303   11.7451 S.O2    1  UNL1        0.0455
      2 O          62.6980   89.0314   10.7546 O.2     1  UNL1       -0.1572
      3 O          60.4807   89.4292   12.7357 O.2     1  UNL1       -0.1572
      4 C          64.4030   91.4793   14.4424 C.3     1  UNL1        0.0032
      5 C          64.2759   91.8684   12.9994 C.3     1  UNL1        0.0192
      6 C          63.3380   91.1187   12.1003 C.3     1  UNL1        0.0954
      7 N          62.5272   89.9800   12.6443 N.3     1  UNL1       -0.1594
      8 C          62.6543   89.5909   14.0873 C.3     1  UNL1        0.0954
      9 C          63.5922   90.3405   14.9864 C.3     1  UNL1        0.0192
     10 C          65.3409   92.2289   15.3416 C.3     1  UNL1        0.0049
     11 C          66.3350   93.1877   14.7564 C.3     1  UNL1        0.0305
     12 C          69.1194   92.5634   16.3397 C.3     1  UNL1        0.0553
     13 C          68.8822   92.3848   14.8695 C.ar    1  UNL1        0.0966
     14 N          69.8831   91.8880   13.8688 N.ar    1  UNL1       -0.0821
     15 O          69.2218   91.8678   12.5225 O.2     1  UNL1       -0.3584
     16 C          67.8122   92.3523   12.6912 C.ar    1  UNL1        0.1504
     17 C          66.7917   92.4926   11.6008 C.3     1  UNL1        0.0750
     18 C          67.6024   92.6718   14.1417 C.ar    1  UNL1        0.0274
     19 C          60.6515   88.4807   10.8460 C.3     1  UNL1        0.1896
     20 C          61.1149   87.2357   10.1493 C.3     1  UNL1        0.1132
     21 C          61.5879   86.9458   11.5430 C.3     1  UNL1        0.0440
     22 C          62.3042   85.6617   11.8400 C.3     1  UNL1        0.0952
     23 N          62.5474   84.6677   10.7433 N.am    1  UNL1       -0.2794
     24 C          63.2637   83.3836   11.0403 C.2     1  UNL1        0.2251
     25 O          63.5070   82.3896    9.9437 O.2     1  UNL1       -0.2749
     26 C          62.0745   84.9576    9.3497 C.3     1  UNL1        0.0952
     27 C          61.3582   86.2417    9.0527 C.3     1  UNL1        0.0440
     28 N          60.4810   87.9581    8.9977 N.am    1  UNL1       -0.1661
     29 O          60.7483   89.4194    8.7902 O.3     1  UNL1       -0.2915
     30 C          59.5797   87.2190    8.0534 C.2     1  UNL1        0.3268
     31 O          58.9458   87.9414    6.9017 O.2     1  UNL1       -0.2627
     32 H          61.3463   89.7403    9.4832 H       1  UNL1        0.2417
     33 C          63.7367   83.0937   12.4339 C.3     1  UNL1        0.0767
     34 C          64.6304   83.7898   13.4171 C.3     1  UNL1        0.0091
     35 C          64.4055   82.6836   14.4049 C.3     1  UNL1        0.0010
     36 C          63.5117   81.9874   13.4218 C.3     1  UNL1        0.0091
@<TRIPOS>BOND
     1    12    13    1
     2    13    14   ar
     3    14    15   ar
     4    15    16   ar
     5    16    17    1
     6    16    18   ar
     7    18    11    1
     8    11    10    1
     9    10     4    1
    10     4     5    1
    11     5     6    1
    12     6     7    1
    13     7     1    1
    14     1     2    2
    15     1     3    2
    16     1    19    1
    17    19    20    1
    18    20    28    1
    19    28    29    1
    20    28    30   am
    21    30    31    2
    22    20    21    1
    23    21    22    1
    24    22    23    1
    25    23    24   am
    26    24    25    2
    27    24    33    1
    28    33    34    1
    29    34    35    1
    30    35    36    1
    31    23    26    1
    32    26    27    1
    33     7     8    1
    34     8     9    1
    35    18    13   ar
    36     9     4    1
    37    27    20    1
    38    36    33    1
    39    29    32    1
@<TRIPOS>MOLECULE
*****
 36 39 0 0 0
SMALL
GASTEIGER

@<TRIPOS>ATOM
      1 S          62.5738   89.6335   11.9962 S.O2    1  UNL1        0.0455
      2 O          63.7189   89.9092   11.0675 O.2     1  UNL1       -0.1572
      3 O          61.4286   89.3578   12.9250 O.2     1  UNL1       -0.1572
      4 C          59.8522   89.0350    8.4629 C.3     1  UNL1        0.0032
      5 C          59.7165   90.2622    9.3146 C.3     1  UNL1        0.0192
      6 C          60.6237   90.4616   10.4924 C.3     1  UNL1        0.0954
      7 N          61.6665   89.4339   10.8184 N.3     1  UNL1       -0.1594
      8 C          61.8022   88.2068    9.9666 C.3     1  UNL1        0.0954
      9 C          60.8951   88.0073    8.7888 C.3     1  UNL1        0.0192
     10 C          58.9450   88.8355    7.2850 C.3     1  UNL1        0.0049
     11 C          59.4111   89.2054    5.9081 C.3     1  UNL1        0.0305
     12 C          61.4500   91.3911    4.5985 C.3     1  UNL1        0.0553
     13 C          59.9612   91.5325    4.7133 C.ar    1  UNL1        0.0966
     14 N          59.1481   92.7033    4.2464 N.ar    1  UNL1       -0.0821
     15 O          57.7083   92.4223    4.5598 O.2     1  UNL1       -0.3584
     16 C          57.6316   91.0777    5.2205 C.ar    1  UNL1        0.1504
     17 C          56.3820   90.4019    5.7017 C.3     1  UNL1        0.0750
     18 C          59.0240   90.5279    5.3153 C.ar    1  UNL1        0.0274
     19 C          63.4810   89.8330   13.1740 C.3     1  UNL1        0.1896
     20 C          63.7466   88.6971   14.1170 C.3     1  UNL1        0.1132
     21 C          63.5210   87.9332   12.8460 C.3     1  UNL1        0.0440
     22 C          63.6074   86.4356   12.8457 C.3     1  UNL1        0.0952
     23 N          63.9194   85.7022   14.1164 N.am    1  UNL1       -0.2794
     24 C          64.0058   84.2046   14.1161 C.2     1  UNL1        0.2251
     25 O          64.3177   83.4711   15.3867 O.2     1  UNL1       -0.2749
     26 C          64.1449   86.4661   15.3874 C.3     1  UNL1        0.0952
     27 C          64.0585   87.9636   15.3876 C.3     1  UNL1        0.0440
     28 N          63.8799   89.8556   15.0605 N.am    1  UNL1       -0.1661
     29 O          63.0220   89.9251   16.2889 O.3     1  UNL1       -0.2915
     30 C          64.8712   90.9447   14.7755 C.2     1  UNL1        0.3268
     31 O          65.0045   92.1032   15.7189 O.2     1  UNL1       -0.2627
     32 H          62.4412   89.1489   16.3220 H       1  UNL1        0.2417
     33 C          63.7802   83.4407   12.8451 C.3     1  UNL1        0.0767
     34 C          62.6534   82.6253   12.2833 C.3     1  UNL1        0.0091
     35 C          63.4613   82.3603   11.0476 C.3     1  UNL1        0.0010
     36 C          64.5881   83.1756   11.6092 C.3     1  UNL1        0.0091
@<TRIPOS>BOND
     1    12    13    1
     2    13    14   ar
     3    14    15   ar
     4    15    16   ar
     5    16    17    1
     6    16    18   ar
     7    18    11    1
     8    11    10    1
     9    10     4    1
    10     4     5    1
    11     5     6    1
    12     6     7    1
    13     7     1    1
    14     1     2    2
    15     1     3    2
    16     1    19    1
    17    19    20    1
    18    20    28    1
    19    28    29    1
    20    28    30   am
    21    30    31    2
    22    20    21    1
    23    21    22    1
    24    22    23    1
    25    23    24   am
    26    24    25    2
    27    24    33    1
    28    33    34    1
    29    34    35    1
    30    35    36    1
    31    23    26    1
    32    26    27    1
    33     7     8    1
    34     8     9    1
    35    18    13   ar
    36     9     4    1
    37    27    20    1
    38    36    33    1
    39    29    32    1
@<TRIPOS>MOLECULE
*****
 36 39 0 0 0
SMALL
GASTEIGER

@<TRIPOS>ATOM
      1 S          62.5546   88.5997   12.1333 S.O2    1  UNL1        0.0455
      2 O          63.1280   87.3334   11.5699 O.2     1  UNL1       -0.1572
      3 O          61.9811   89.8661   12.6967 O.2     1  UNL1       -0.1572
      4 C          59.8613   88.9750    8.5479 C.3     1  UNL1        0.0032
      5 C          60.6436   87.7145    8.7696 C.3     1  UNL1        0.0192
      6 C          61.5414   87.5895    9.9647 C.3     1  UNL1        0.0954
      7 N          61.6568   88.7248   10.9381 N.3     1  UNL1       -0.1594
      8 C          60.8745   89.9853   10.7164 C.3     1  UNL1        0.0954
      9 C          59.9767   90.1104    9.5213 C.3     1  UNL1        0.0192
     10 C          58.9635   89.1001    7.3527 C.3     1  UNL1        0.0049
     11 C          59.5487   89.3881    6.0019 C.3     1  UNL1        0.0305
     12 C          61.5889   91.4438    4.4983 C.3     1  UNL1        0.0553
     13 C          60.0972   91.5811    4.5754 C.ar    1  UNL1        0.0966
     14 N          59.2814   92.6874    3.9749 N.ar    1  UNL1       -0.0821
     15 O          57.8393   92.4262    4.2949 O.2     1  UNL1       -0.3584
     16 C          57.7640   91.1584    5.0932 C.ar    1  UNL1        0.1504
     17 C          56.5128   90.5243    5.6248 C.3     1  UNL1        0.0750
     18 C          59.1594   90.6362    5.2665 C.ar    1  UNL1        0.0274
     19 C          63.4524   88.4746   13.3284 C.3     1  UNL1        0.1896
     20 C          64.0088   89.7054   13.9806 C.3     1  UNL1        0.1132
     21 C          64.3106   90.0129   12.5439 C.3     1  UNL1        0.0440
     22 C          64.9970   91.2960   12.1796 C.3     1  UNL1        0.0952
     23 N          65.3815   92.2715   13.2523 N.am    1  UNL1       -0.2794
     24 C          66.0678   93.5546   12.8880 C.2     1  UNL1        0.2251
     25 O          66.4523   94.5302   13.9606 O.2     1  UNL1       -0.2749
     26 C          65.0796   91.9640   14.6890 C.3     1  UNL1        0.0952
     27 C          64.3933   90.6810   15.0532 C.3     1  UNL1        0.0440
     28 N          63.5137   88.9704   15.1909 N.am    1  UNL1       -0.1661
     29 O          62.6247   89.6656   16.1790 O.3     1  UNL1       -0.2915
     30 C          63.9076   87.5402   15.4130 C.2     1  UNL1        0.3268
     31 O          63.4125   86.8052   16.6232 O.2     1  UNL1       -0.2627
     32 H          62.4687   90.5776   15.8879 H       1  UNL1        0.2417
     33 C          66.3697   93.8621   11.4513 C.3     1  UNL1        0.0767
     34 C          67.1512   93.1867   10.3636 C.3     1  UNL1        0.0091
     35 C          66.7965   94.2970    9.4194 C.3     1  UNL1        0.0010
     36 C          66.0150   94.9723   10.5070 C.3     1  UNL1        0.0091
@<TRIPOS>BOND
     1    12    13    1
     2    13    14   ar
     3    14    15   ar
     4    15    16   ar
     5    16    17    1
     6    16    18   ar
     7    18    11    1
     8    11    10    1
     9    10     4    1
    10     4     5    1
    11     5     6    1
    12     6     7    1
    13     7     1    1
    14     1     2    2
    15     1     3    2
    16     1    19    1
    17    19    20    1
    18    20    28    1
    19    28    29    1
    20    28    30   am
    21    30    31    2
    22    20    21    1
    23    21    22    1
    24    22    23    1
    25    23    24   am
    26    24    25    2
    27    24    33    1
    28    33    34    1
    29    34    35    1
    30    35    36    1
    31    23    26    1
    32    26    27    1
    33     7     8    1
    34     8     9    1
    35    18    13   ar
    36     9     4    1
    37    27    20    1
    38    36    33    1
    39    29    32    1
@<TRIPOS>MOLECULE
*****
 36 39 0 0 0
SMALL
GASTEIGER

@<TRIPOS>ATOM
      1 S          60.8308   92.9413    2.5239 S.O2    1  UNL1        0.0455
      2 O          59.7801   93.9509    2.8798 O.2     1  UNL1       -0.1572
      3 O          61.8815   91.9317    2.1680 O.2     1  UNL1       -0.1572
      4 C          59.4584   90.3185    5.9132 C.3     1  UNL1        0.0032
      5 C          58.4686   91.1720    5.1771 C.3     1  UNL1        0.0192
      6 C          58.9261   92.0462    4.0474 C.3     1  UNL1        0.0954
      7 N          60.3733   92.0670    3.6537 N.3     1  UNL1       -0.1594
      8 C          61.3631   91.2135    4.3897 C.3     1  UNL1        0.0954
      9 C          60.9056   90.3392    5.5195 C.3     1  UNL1        0.0192
     10 C          59.0009   89.4442    7.0430 C.3     1  UNL1        0.0049
     11 C          59.7027   89.5017    8.3674 C.3     1  UNL1        0.0305
     12 C          59.0199   86.3730    7.7393 C.3     1  UNL1        0.0553
     13 C          60.1634   86.8764    8.5693 C.ar    1  UNL1        0.0966
     14 N          61.1938   86.0301    9.2563 N.ar    1  UNL1       -0.0821
     15 O          62.1446   86.9452    9.9696 O.2     1  UNL1       -0.3584
     16 C          61.7017   88.3571    9.7235 C.ar    1  UNL1        0.1504
     17 C          62.3665   89.5942   10.2503 C.3     1  UNL1        0.0750
     18 C          60.4772   88.3145    8.8580 C.ar    1  UNL1        0.0274
     19 C          61.2882   93.8156    1.3942 C.3     1  UNL1        0.1896
     20 C          60.2980   94.6677    0.6569 C.3     1  UNL1        0.1132
     21 C          59.9086   93.3129    0.1441 C.3     1  UNL1        0.0440
     22 C          58.7836   93.1780   -0.8389 C.3     1  UNL1        0.0952
     23 N          58.0482   94.3978   -1.3091 N.am    1  UNL1       -0.2794
     24 C          56.9233   94.2629   -2.2922 C.2     1  UNL1        0.2251
     25 O          56.1878   95.4827   -2.7624 O.2     1  UNL1       -0.2749
     26 C          58.4377   95.7526   -0.7964 C.3     1  UNL1        0.0952
     27 C          59.5626   95.8875    0.1867 C.3     1  UNL1        0.0440
     28 N          61.0314   95.7265    1.4257 N.am    1  UNL1       -0.1661
     29 O          60.2666   96.7276    2.2399 O.3     1  UNL1       -0.2915
     30 C          62.5296   95.7842    1.3804 C.2     1  UNL1        0.3268
     31 O          63.2630   96.8430    2.1493 O.2     1  UNL1       -0.2627
     32 H          59.3162   96.5505    2.1607 H       1  UNL1        0.2417
     33 C          56.5339   92.9081   -2.8049 C.3     1  UNL1        0.0767
     34 C          56.7801   92.1421   -4.0708 C.3     1  UNL1        0.0091
     35 C          55.9831   90.9922   -3.5300 C.3     1  UNL1        0.0010
     36 C          55.7368   91.7582   -2.2641 C.3     1  UNL1        0.0091
@<TRIPOS>BOND
     1    12    13    1
     2    13    14   ar
     3    14    15   ar
     4    15    16   ar
     5    16    17    1
     6    16    18   ar
     7    18    11    1
     8    11    10    1
     9    10     4    1
    10     4     5    1
    11     5     6    1
    12     6     7    1
    13     7     1    1
    14     1     2    2
    15     1     3    2
    16     1    19    1
    17    19    20    1
    18    20    28    1
    19    28    29    1
    20    28    30   am
    21    30    31    2
    22    20    21    1
    23    21    22    1
    24    22    23    1
    25    23    24   am
    26    24    25    2
    27    24    33    1
    28    33    34    1
    29    34    35    1
    30    35    36    1
    31    23    26    1
    32    26    27    1
    33     7     8    1
    34     8     9    1
    35    18    13   ar
    36     9     4    1
    37    27    20    1
    38    36    33    1
    39    29    32    1
@<TRIPOS>MOLECULE
*****
 36 39 0 0 0
SMALL
GASTEIGER

@<TRIPOS>ATOM
      1 S          60.9810   93.7131    2.2800 S.O2    1  UNL1        0.0455
      2 O          61.8734   92.7114    1.6092 O.2     1  UNL1       -0.1572
      3 O          60.0886   94.7148    2.9509 O.2     1  UNL1       -0.1572
      4 C          59.7769   90.6111    5.3095 C.3     1  UNL1        0.0032
      5 C          61.2019   90.6961    4.8490 C.3     1  UNL1        0.0192
      6 C          61.6032   91.7301    3.8392 C.3     1  UNL1        0.0954
      7 N          60.5796   92.6791    3.2899 N.3     1  UNL1       -0.1594
      8 C          59.1546   92.5940    3.7504 C.3     1  UNL1        0.0954
      9 C          58.7532   91.5600    4.7602 C.3     1  UNL1        0.0192
     10 C          59.3755   89.5771    6.3194 C.3     1  UNL1        0.0049
     11 C          59.6427   89.8089    7.7770 C.3     1  UNL1        0.0305
     12 C          58.9411   86.6253    7.6303 C.3     1  UNL1        0.0553
     13 C          59.9497   87.2649    8.5379 C.ar    1  UNL1        0.0966
     14 N          60.8128   86.5535    9.5373 N.ar    1  UNL1       -0.0821
     15 O          61.6688   87.5772   10.2225 O.2     1  UNL1       -0.3584
     16 C          61.3346   88.9214    9.6464 C.ar    1  UNL1        0.1504
     17 C          61.9542   90.2289   10.0420 C.3     1  UNL1        0.0750
     18 C          60.2722   88.7282    8.6053 C.ar    1  UNL1        0.0274
     19 C          61.3824   94.7470    1.2702 C.3     1  UNL1        0.1896
     20 C          61.1048   94.5203   -0.1864 C.3     1  UNL1        0.1132
     21 C          59.7073   94.7331    0.3152 C.3     1  UNL1        0.0440
     22 C          58.5509   94.6727   -0.6384 C.3     1  UNL1        0.0952
     23 N          58.7922   94.3994   -2.0934 N.am    1  UNL1       -0.2794
     24 C          57.6359   94.3389   -3.0470 C.2     1  UNL1        0.2251
     25 O          57.8771   94.0656   -4.5020 O.2     1  UNL1       -0.2749
     26 C          60.1898   94.1865   -2.5949 C.3     1  UNL1        0.0952
     27 C          61.3460   94.2470   -1.6413 C.3     1  UNL1        0.0440
     28 N          62.5988   94.3862   -0.1820 N.am    1  UNL1       -0.1661
     29 O          63.2413   93.1361   -0.7059 O.3     1  UNL1       -0.2915
     30 C          63.4504   95.5023    0.3465 C.2     1  UNL1        0.3268
     31 O          64.9444   95.3682    0.3509 O.2     1  UNL1       -0.2627
     32 H          62.5541   92.5210   -1.0065 H       1  UNL1        0.2417
     33 C          56.2383   94.5517   -2.5455 C.3     1  UNL1        0.0767
     34 C          55.2147   93.6947   -1.8616 C.3     1  UNL1        0.0091
     35 C          54.2619   94.8529   -1.8363 C.3     1  UNL1        0.0010
     36 C          55.2854   95.7100   -2.5201 C.3     1  UNL1        0.0091
@<TRIPOS>BOND
     1    12    13    1
     2    13    14   ar
     3    14    15   ar
     4    15    16   ar
     5    16    17    1
     6    16    18   ar
     7    18    11    1
     8    11    10    1
     9    10     4    1
    10     4     5    1
    11     5     6    1
    12     6     7    1
    13     7     1    1
    14     1     2    2
    15     1     3    2
    16     1    19    1
    17    19    20    1
    18    20    28    1
    19    28    29    1
    20    28    30   am
    21    30    31    2
    22    20    21    1
    23    21    22    1
    24    22    23    1
    25    23    24   am
    26    24    25    2
    27    24    33    1
    28    33    34    1
    29    34    35    1
    30    35    36    1
    31    23    26    1
    32    26    27    1
    33     7     8    1
    34     8     9    1
    35    18    13   ar
    36     9     4    1
    37    27    20    1
    38    36    33    1
    39    29    32    1
@<TRIPOS>MOLECULE
*****
 36 39 0 0 0
SMALL
GASTEIGER

@<TRIPOS>ATOM
      1 S          61.7159   95.6978   -1.6042 S.O2    1  UNL1        0.0455
      2 O          62.4702   94.5397   -2.1873 O.2     1  UNL1       -0.1572
      3 O          60.9617   96.8558   -1.0212 O.2     1  UNL1       -0.1572
      4 C          58.3587   94.9750   -4.5123 C.3     1  UNL1        0.0032
      5 C          59.5003   94.0056   -4.4287 C.3     1  UNL1        0.0192
      6 C          60.6193   94.2465   -3.4594 C.3     1  UNL1        0.0954
      7 N          60.5968   95.4569   -2.5736 N.3     1  UNL1       -0.1594
      8 C          59.4552   96.4263   -2.6572 C.3     1  UNL1        0.0954
      9 C          58.3362   96.1854   -3.6265 C.3     1  UNL1        0.0192
     10 C          57.2396   94.7341   -5.4817 C.3     1  UNL1        0.0049
     11 C          55.9417   94.1565   -5.0003 C.3     1  UNL1        0.0305
     12 C          56.9867   91.1642   -4.2236 C.3     1  UNL1        0.0553
     13 C          56.3417   92.1432   -3.2880 C.ar    1  UNL1        0.0966
     14 N          56.0639   91.9189   -1.8311 N.ar    1  UNL1       -0.0821
     15 O          55.4118   93.1556   -1.2877 O.2     1  UNL1       -0.3584
     16 C          55.2867   94.1444   -2.4088 C.ar    1  UNL1        0.1504
     17 C          54.6914   95.5177   -2.3108 C.3     1  UNL1        0.0750
     18 C          55.8614   93.5187   -3.6450 C.ar    1  UNL1        0.0274
     19 C          62.8350   95.9386   -0.6349 C.3     1  UNL1        0.1896
     20 C          63.4453   94.7868    0.1073 C.3     1  UNL1        0.1132
     21 C          62.0772   94.7973    0.7221 C.3     1  UNL1        0.0440
     22 C          61.7209   93.7912    1.7762 C.3     1  UNL1        0.0952
     23 N          62.7328   92.7747    2.2152 N.am    1  UNL1       -0.2794
     24 C          62.3766   91.7687    3.2693 C.2     1  UNL1        0.2251
     25 O          63.3884   90.7522    3.7084 O.2     1  UNL1       -0.2749
     26 C          64.1010   92.7642    1.6004 C.3     1  UNL1        0.0952
     27 C          64.4571   93.7703    0.5464 C.3     1  UNL1        0.0440
     28 N          64.6015   95.1764   -0.7654 N.am    1  UNL1       -0.1661
     29 O          64.9286   94.3647   -1.9836 O.3     1  UNL1       -0.2915
     30 C          65.4306   96.3778   -0.4198 C.2     1  UNL1        0.3268
     31 O          66.5867   96.7673   -1.2925 O.2     1  UNL1       -0.2627
     32 H          64.3004   93.6297   -2.0607 H       1  UNL1        0.2417
     33 C          61.0084   91.7791    3.8841 C.3     1  UNL1        0.0767
     34 C          59.7691   92.6040    3.7002 C.3     1  UNL1        0.0091
     35 C          59.0736   91.7939    4.7538 C.3     1  UNL1        0.0010
     36 C          60.3128   90.9691    4.9378 C.3     1  UNL1        0.0091
@<TRIPOS>BOND
     1    12    13    1
     2    13    14   ar
     3    14    15   ar
     4    15    16   ar
     5    16    17    1
     6    16    18   ar
     7    18    11    1
     8    11    10    1
     9    10     4    1
    10     4     5    1
    11     5     6    1
    12     6     7    1
    13     7     1    1
    14     1     2    2
    15     1     3    2
    16     1    19    1
    17    19    20    1
    18    20    28    1
    19    28    29    1
    20    28    30   am
    21    30    31    2
    22    20    21    1
    23    21    22    1
    24    22    23    1
    25    23    24   am
    26    24    25    2
    27    24    33    1
    28    33    34    1
    29    34    35    1
    30    35    36    1
    31    23    26    1
    32    26    27    1
    33     7     8    1
    34     8     9    1
    35    18    13   ar
    36     9     4    1
    37    27    20    1
    38    36    33    1
    39    29    32    1
@<TRIPOS>MOLECULE
*****
 36 39 0 0 0
SMALL
GASTEIGER

@<TRIPOS>ATOM
      1 S          61.4259   96.0333   -1.2266 S.O2    1  UNL1        0.0455
      2 O          60.7921   96.8560   -0.1443 O.2     1  UNL1       -0.1572
      3 O          62.0597   95.2106   -2.3089 O.2     1  UNL1       -0.1572
      4 C          57.4435   95.6831   -3.2923 C.3     1  UNL1        0.0032
      5 C          57.5089   95.7440   -1.7950 C.3     1  UNL1        0.0192
      6 C          58.8363   95.8607   -1.1065 C.3     1  UNL1        0.0954
      7 N          60.0984   95.9166   -1.9152 N.3     1  UNL1       -0.1594
      8 C          60.0330   95.8556   -3.4125 C.3     1  UNL1        0.0954
      9 C          58.7055   95.7389   -4.1011 C.3     1  UNL1        0.0192
     10 C          56.1159   95.5664   -3.9810 C.3     1  UNL1        0.0049
     11 C          55.3803   94.2592   -3.9750 C.3     1  UNL1        0.0305
     12 C          55.9795   93.3653   -7.0558 C.3     1  UNL1        0.0553
     13 C          56.3531   92.5932   -5.8252 C.ar    1  UNL1        0.0966
     14 N          57.0677   91.2747   -5.7947 N.ar    1  UNL1       -0.0821
     15 O          57.2339   90.8707   -4.3597 O.2     1  UNL1       -0.3584
     16 C          56.6220   91.9396   -3.5033 C.ar    1  UNL1        0.1504
     17 C          56.5647   91.9432   -2.0044 C.3     1  UNL1        0.0750
     18 C          56.0777   93.0041   -4.4091 C.ar    1  UNL1        0.0274
     19 C          62.7534   96.1500   -0.5380 C.3     1  UNL1        0.1896
     20 C          63.3569   94.9531    0.1352 C.3     1  UNL1        0.1132
     21 C          62.0088   94.9695    0.7926 C.3     1  UNL1        0.0440
     22 C          61.6597   93.9276    1.8137 C.3     1  UNL1        0.0952
     23 N          62.6587   92.8694    2.1773 N.am    1  UNL1       -0.2794
     24 C          62.3095   91.8275    3.1984 C.2     1  UNL1        0.2251
     25 O          63.3085   90.7693    3.5619 O.2     1  UNL1       -0.2749
     26 C          64.0068   92.8530    1.5198 C.3     1  UNL1        0.0952
     27 C          64.3559   93.8949    0.4987 C.3     1  UNL1        0.0440
     28 N          64.4954   95.3525   -0.7561 N.am    1  UNL1       -0.1661
     29 O          64.7044   94.6515   -2.0657 O.3     1  UNL1       -0.2915
     30 C          65.4250   96.4529   -0.3378 C.2     1  UNL1        0.3268
     31 O          66.5635   96.8522   -1.2291 O.2     1  UNL1       -0.2627
     32 H          64.0215   93.9724   -2.1815 H       1  UNL1        0.2417
     33 C          60.9614   91.8439    3.8558 C.3     1  UNL1        0.0767
     34 C          60.3479   91.1489    5.0351 C.3     1  UNL1        0.0091
     35 C          59.0548   91.8671    4.7856 C.3     1  UNL1        0.0010
     36 C          59.6683   92.5621    3.6064 C.3     1  UNL1        0.0091
@<TRIPOS>BOND
     1    12    13    1
     2    13    14   ar
     3    14    15   ar
     4    15    16   ar
     5    16    17    1
     6    16    18   ar
     7    18    11    1
     8    11    10    1
     9    10     4    1
    10     4     5    1
    11     5     6    1
    12     6     7    1
    13     7     1    1
    14     1     2    2
    15     1     3    2
    16     1    19    1
    17    19    20    1
    18    20    28    1
    19    28    29    1
    20    28    30   am
    21    30    31    2
    22    20    21    1
    23    21    22    1
    24    22    23    1
    25    23    24   am
    26    24    25    2
    27    24    33    1
    28    33    34    1
    29    34    35    1
    30    35    36    1
    31    23    26    1
    32    26    27    1
    33     7     8    1
    34     8     9    1
    35    18    13   ar
    36     9     4    1
    37    27    20    1
    38    36    33    1
    39    29    32    1
@<TRIPOS>MOLECULE
*****
 36 39 0 0 0
SMALL
GASTEIGER

@<TRIPOS>ATOM
      1 S          61.6605   89.0596   10.6100 S.O2    1  UNL1        0.0455
      2 O          60.6440   89.5452   11.6004 O.2     1  UNL1       -0.1572
      3 O          62.6771   88.5741    9.6197 O.2     1  UNL1       -0.1572
      4 C          64.6520   92.0003   12.2390 C.3     1  UNL1        0.0032
      5 C          64.2412   92.0688   10.7980 C.3     1  UNL1        0.0192
      6 C          63.2440   91.0886   10.2551 C.3     1  UNL1        0.0954
      7 N          62.6577   90.0399   11.1531 N.3     1  UNL1       -0.1594
      8 C          63.0685   89.9714   12.5941 C.3     1  UNL1        0.0954
      9 C          64.0656   90.9516   13.1370 C.3     1  UNL1        0.0192
     10 C          65.6491   92.9805   12.7821 C.3     1  UNL1        0.0049
     11 C          67.0475   92.5345   13.0911 C.3     1  UNL1        0.0305
     12 C          70.1607   92.4655   14.0671 C.3     1  UNL1        0.0553
     13 C          68.9563   92.4633   14.9611 C.ar    1  UNL1        0.0966
     14 N          68.9713   92.4291   16.4607 N.ar    1  UNL1       -0.0821
     15 O          67.5496   92.4396   16.9389 O.2     1  UNL1       -0.3584
     16 C          66.6558   92.4804   15.7348 C.ar    1  UNL1        0.1504
     17 C          65.1561   92.5026   15.7503 C.3     1  UNL1        0.0750
     18 C          67.5253   92.4950   14.5125 C.ar    1  UNL1        0.0274
     19 C          60.6634   88.0794   10.0670 C.3     1  UNL1        0.1896
     20 C          61.0857   86.6740    9.7566 C.3     1  UNL1        0.1132
     21 C          61.5581   86.7804   11.1763 C.3     1  UNL1        0.0440
     22 C          62.2379   85.6139   11.8299 C.3     1  UNL1        0.0952
     23 N          62.4452   84.3411   11.0639 N.am    1  UNL1       -0.2794
     24 C          63.1250   83.1746   11.7175 C.2     1  UNL1        0.2251
     25 O          63.3323   81.9017   10.9515 O.2     1  UNL1       -0.2749
     26 C          61.9728   84.2347    9.6442 C.3     1  UNL1        0.0952
     27 C          61.2930   85.4012    8.9906 C.3     1  UNL1        0.0440
     28 N          60.4666   87.0557    8.4448 N.am    1  UNL1       -0.1661
     29 O          60.6985   86.2063    7.2305 O.3     1  UNL1       -0.2915
     30 C          59.6154   88.2870    8.3472 C.2     1  UNL1        0.3268
     31 O          58.9963   88.6688    7.0354 O.2     1  UNL1       -0.2627
     32 H          61.2661   85.4553    7.4648 H       1  UNL1        0.2417
     33 C          63.5974   83.2810   13.1372 C.3     1  UNL1        0.0767
     34 C          64.6879   84.0354   13.8385 C.3     1  UNL1        0.0091
     35 C          64.2655   83.4315   15.1449 C.3     1  UNL1        0.0010
     36 C          63.1750   82.6771   14.4437 C.3     1  UNL1        0.0091
@<TRIPOS>BOND
     1    12    13    1
     2    13    14   ar
     3    14    15   ar
     4    15    16   ar
     5    16    17    1
     6    16    18   ar
     7    18    11    1
     8    11    10    1
     9    10     4    1
    10     4     5    1
    11     5     6    1
    12     6     7    1
    13     7     1    1
    14     1     2    2
    15     1     3    2
    16     1    19    1
    17    19    20    1
    18    20    28    1
    19    28    29    1
    20    28    30   am
    21    30    31    2
    22    20    21    1
    23    21    22    1
    24    22    23    1
    25    23    24   am
    26    24    25    2
    27    24    33    1
    28    33    34    1
    29    34    35    1
    30    35    36    1
    31    23    26    1
    32    26    27    1
    33     7     8    1
    34     8     9    1
    35    18    13   ar
    36     9     4    1
    37    27    20    1
    38    36    33    1
    39    29    32    1
