@<TRIPOS>MOLECULE
*****
 34 38 0 0 0
SMALL
GASTEIGER

@<TRIPOS>ATOM
      1 N          64.8627   91.6274   12.2620 N.ar    1  UNL1       -0.2806
      2 C          64.3292   90.3959   12.9319 C.ar    1  UNL1        0.2619
      3 O          63.4232   89.4661   12.1804 O.2     1  UNL1       -0.2669
      4 C          64.7016   90.0942   14.3532 C.ar    1  UNL1        0.0561
      5 C          65.6077   91.0240   15.1047 C.ar    1  UNL1        0.0093
      6 C          66.1412   92.2555   14.4348 C.ar    1  UNL1        0.0553
      7 C          67.0467   93.3490   14.9188 C.ar    1  UNL1        0.1235
      8 N          67.2339   94.3265   13.7966 N.ar    1  UNL1       -0.1621
      9 N          66.4440   93.8371   12.6190 N.ar    1  UNL1       -0.2115
     10 C          65.7687   92.5571   13.0134 C.ar    1  UNL1        0.1490
     11 C          66.3466   94.5097   11.2817 C.ar    1  UNL1        0.1119
     12 C          65.5423   95.7668   11.1313 C.ar    1  UNL1        0.0238
     13 C          65.4449   96.4394    9.7941 C.ar    1  UNL1        0.0313
     14 C          66.1518   95.8549    8.6073 C.ar    1  UNL1        0.1425
     15 F          66.0544   96.5275    7.2701 F       1  UNL1       -0.2041
     16 C          66.9562   94.5977    8.7578 C.ar    1  UNL1        0.0608
     17 C          67.0536   93.9251   10.0949 C.ar    1  UNL1        0.1600
     18 F          67.8580   92.6680   10.2453 F       1  UNL1       -0.2025
     19 C          64.1681   88.8626   15.0231 C.ar    1  UNL1        0.0008
     20 C          64.3842   87.5159   14.3989 C.ar    1  UNL1        0.0043
     21 C          63.8507   86.2844   15.0688 C.ar    1  UNL1        0.0533
     22 C          63.1011   86.3997   16.3629 C.ar    1  UNL1        0.0042
     23 C          62.8850   87.7464   16.9872 C.ar    1  UNL1       -0.0041
     24 C          63.4185   88.9779   16.3173 C.ar    1  UNL1       -0.0217
     25 C          63.2024   90.3247   16.9414 C.3     1  UNL1        0.0310
     26 C          64.0668   84.9377   14.4446 C.2     1  UNL1        0.2458
     27 O          65.4576   84.3974   14.2897 O.2     1  UNL1       -0.2701
     28 N          62.8922   84.1314   13.9753 N.am    1  UNL1       -0.3025
     29 H          61.9795   84.4860   14.0769 H       1  UNL1        0.1497
     30 C          63.1085   82.7847   13.3510 C.3     1  UNL1        0.0720
     31 C          62.8778   81.8238   12.2226 C.3     1  UNL1        0.0213
     32 C          63.7136   81.4130   13.3985 C.3     1  UNL1        0.0213
     33 C          63.1993   91.4126   10.2778 C.3     1  UNL1        0.0266
     34 C          64.4902   91.9290   10.8406 C.3     1  UNL1        0.1105
@<TRIPOS>BOND
     1    33    34    1
     2    34     1    1
     3     1     2   ar
     4     2     3    2
     5     2     4   ar
     6     4    19    1
     7    19    20   ar
     8    20    21   ar
     9    21    26    1
    10    26    27    2
    11    26    28   am
    12    28    30    1
    13    30    31    1
    14    31    32    1
    15    21    22   ar
    16    22    23   ar
    17    23    24   ar
    18    24    25    1
    19     4     5   ar
    20     5     6   ar
    21     6     7   ar
    22     7     8   ar
    23     8     9   ar
    24     9    11    1
    25    11    12   ar
    26    12    13   ar
    27    13    14   ar
    28    14    15    1
    29    14    16   ar
    30    16    17   ar
    31    17    18    1
    32     9    10   ar
    33    10     1   ar
    34    24    19   ar
    35    10     6   ar
    36    32    30    1
    37    17    11   ar
    38    28    29    1
@<TRIPOS>MOLECULE
*****
 34 38 0 0 0
SMALL
GASTEIGER

@<TRIPOS>ATOM
      1 N          63.7756   85.8928   13.4765 N.ar    1  UNL1       -0.2806
      2 C          64.2172   87.1857   14.0958 C.ar    1  UNL1        0.2619
      3 O          65.1006   87.1733   15.3081 O.2     1  UNL1       -0.2669
      4 C          63.7755   88.4907   13.5029 C.ar    1  UNL1        0.0561
      5 C          62.8921   88.5031   12.2906 C.ar    1  UNL1        0.0093
      6 C          62.4505   87.2102   11.6713 C.ar    1  UNL1        0.0553
      7 C          61.5865   86.9104   10.4824 C.ar    1  UNL1        0.1235
      8 N          61.4942   85.4200   10.3406 N.ar    1  UNL1       -0.1621
      9 N          62.3012   84.7987   11.4418 N.ar    1  UNL1       -0.2115
     10 C          62.8922   85.9051   12.2643 C.ar    1  UNL1        0.1490
     11 C          62.4849   83.3290   11.6789 C.ar    1  UNL1        0.1119
     12 C          61.8439   82.6751   12.8670 C.ar    1  UNL1        0.0238
     13 C          62.0275   81.2054   13.1042 C.ar    1  UNL1        0.0313
     14 C          62.8521   80.3896   12.1533 C.ar    1  UNL1        0.1425
     15 F          63.0358   78.9199   12.3904 F       1  UNL1       -0.2041
     16 C          63.4931   81.0435   10.9651 C.ar    1  UNL1        0.0608
     17 C          63.3095   82.5131   10.7280 C.ar    1  UNL1        0.1600
     18 F          63.9505   83.1670    9.5399 F       1  UNL1       -0.2025
     19 C          64.2172   89.7836   14.1223 C.ar    1  UNL1        0.0008
     20 C          64.9833   90.7827   13.3068 C.ar    1  UNL1        0.0043
     21 C          65.4250   92.0755   13.9261 C.ar    1  UNL1        0.0533
     22 C          65.1004   92.3693   15.3608 C.ar    1  UNL1        0.0042
     23 C          64.3342   91.3702   16.1762 C.ar    1  UNL1       -0.0041
     24 C          63.8926   90.0774   15.5569 C.ar    1  UNL1       -0.0217
     25 C          63.1264   89.0783   16.3723 C.3     1  UNL1        0.0310
     26 C          66.1912   93.0745   13.1107 C.2     1  UNL1        0.2458
     27 O          67.5641   93.4988   13.5410 O.2     1  UNL1       -0.2701
     28 N          65.5844   93.6493   11.8651 N.am    1  UNL1       -0.3025
     29 H          64.6834   93.3708   11.5827 H       1  UNL1        0.1497
     30 C          66.3507   94.6483   11.0498 C.3     1  UNL1        0.0720
     31 C          67.2686   94.9608    9.9053 C.3     1  UNL1        0.0213
     32 C          66.7599   96.0664   10.7821 C.3     1  UNL1        0.0213
     33 C          63.6611   84.1362   15.3873 C.3     1  UNL1        0.0266
     34 C          64.2173   84.5877   14.0695 C.3     1  UNL1        0.1105
@<TRIPOS>BOND
     1    33    34    1
     2    34     1    1
     3     1     2   ar
     4     2     3    2
     5     2     4   ar
     6     4    19    1
     7    19    20   ar
     8    20    21   ar
     9    21    26    1
    10    26    27    2
    11    26    28   am
    12    28    30    1
    13    30    31    1
    14    31    32    1
    15    21    22   ar
    16    22    23   ar
    17    23    24   ar
    18    24    25    1
    19     4     5   ar
    20     5     6   ar
    21     6     7   ar
    22     7     8   ar
    23     8     9   ar
    24     9    11    1
    25    11    12   ar
    26    12    13   ar
    27    13    14   ar
    28    14    15    1
    29    14    16   ar
    30    16    17   ar
    31    17    18    1
    32     9    10   ar
    33    10     1   ar
    34    24    19   ar
    35    10     6   ar
    36    32    30    1
    37    17    11   ar
    38    28    29    1
@<TRIPOS>MOLECULE
*****
 34 38 0 0 0
SMALL
GASTEIGER

@<TRIPOS>ATOM
      1 N          65.3849   91.4175   12.9319 N.ar    1  UNL1       -0.2806
      2 C          65.1298   90.3708   13.9756 C.ar    1  UNL1        0.2619
      3 O          66.0311   90.2677   15.1703 O.2     1  UNL1       -0.2669
      4 C          63.9737   89.4272   13.8247 C.ar    1  UNL1        0.0561
      5 C          63.0725   89.5302   12.6300 C.ar    1  UNL1        0.0093
      6 C          63.3275   90.5769   11.5863 C.ar    1  UNL1        0.0553
      7 C          62.6154   90.9166   10.3105 C.ar    1  UNL1        0.1235
      8 N          63.3315   92.0702    9.6731 N.ar    1  UNL1       -0.1621
      9 N          64.4862   92.4435   10.5548 N.ar    1  UNL1       -0.2115
     10 C          64.4837   91.5205   11.7372 C.ar    1  UNL1        0.1490
     11 C          65.4704   93.5461   10.2990 C.ar    1  UNL1        0.1119
     12 C          65.0588   94.9766   10.4836 C.ar    1  UNL1        0.0238
     13 C          66.0431   96.0793   10.2278 C.ar    1  UNL1        0.0313
     14 C          67.4389   95.7514    9.7873 C.ar    1  UNL1        0.1425
     15 F          68.4232   96.8540    9.5315 F       1  UNL1       -0.2041
     16 C          67.8505   94.3207    9.6027 C.ar    1  UNL1        0.0608
     17 C          66.8663   93.2181    9.8585 C.ar    1  UNL1        0.1600
     18 F          67.2779   91.7876    9.6738 F       1  UNL1       -0.2025
     19 C          63.7187   88.3804   14.8685 C.ar    1  UNL1        0.0008
     20 C          63.7988   86.9266   14.5079 C.ar    1  UNL1        0.0043
     21 C          63.5438   85.8799   15.5516 C.ar    1  UNL1        0.0533
     22 C          63.2087   86.2870   16.9559 C.ar    1  UNL1        0.0042
     23 C          63.1286   87.7408   17.3164 C.ar    1  UNL1       -0.0041
     24 C          63.3836   88.7875   16.2727 C.ar    1  UNL1       -0.0217
     25 C          63.3036   90.2414   16.6332 C.3     1  UNL1        0.0310
     26 C          63.6238   84.4260   15.1910 C.2     1  UNL1        0.2458
     27 O          64.8720   83.6479   15.4859 O.2     1  UNL1       -0.2701
     28 N          62.4559   83.7504   14.5357 N.am    1  UNL1       -0.3025
     29 H          61.6368   84.2611   14.3422 H       1  UNL1        0.1497
     30 C          62.5361   82.2965   14.1752 C.3     1  UNL1        0.0720
     31 C          61.9383   80.9208   14.1849 C.3     1  UNL1        0.0213
     32 C          63.2728   81.1542   13.5410 C.3     1  UNL1        0.0213
     33 C          66.3990   93.5922   13.9280 C.3     1  UNL1        0.0266
     34 C          66.5410   92.3611   13.0829 C.3     1  UNL1        0.1105
@<TRIPOS>BOND
     1    33    34    1
     2    34     1    1
     3     1     2   ar
     4     2     3    2
     5     2     4   ar
     6     4    19    1
     7    19    20   ar
     8    20    21   ar
     9    21    26    1
    10    26    27    2
    11    26    28   am
    12    28    30    1
    13    30    31    1
    14    31    32    1
    15    21    22   ar
    16    22    23   ar
    17    23    24   ar
    18    24    25    1
    19     4     5   ar
    20     5     6   ar
    21     6     7   ar
    22     7     8   ar
    23     8     9   ar
    24     9    11    1
    25    11    12   ar
    26    12    13   ar
    27    13    14   ar
    28    14    15    1
    29    14    16   ar
    30    16    17   ar
    31    17    18    1
    32     9    10   ar
    33    10     1   ar
    34    24    19   ar
    35    10     6   ar
    36    32    30    1
    37    17    11   ar
    38    28    29    1
@<TRIPOS>MOLECULE
*****
 34 38 0 0 0
SMALL
GASTEIGER

@<TRIPOS>ATOM
      1 N          63.5280   85.4353   12.8690 N.ar    1  UNL1       -0.2806
      2 C          63.5668   86.8923   13.2237 C.ar    1  UNL1        0.2619
      3 O          63.1582   87.9216   12.2119 O.2     1  UNL1       -0.2669
      4 C          64.0142   87.3198   14.5900 C.ar    1  UNL1        0.0561
      5 C          64.4228   86.2905   15.6018 C.ar    1  UNL1        0.0093
      6 C          64.3840   84.8336   15.2470 C.ar    1  UNL1        0.0553
      7 C          64.7253   83.6006   16.0301 C.ar    1  UNL1        0.1235
      8 N          64.4888   82.4109   15.1476 N.ar    1  UNL1       -0.1621
      9 N          64.0014   82.9087   13.8192 N.ar    1  UNL1       -0.2115
     10 C          63.9366   84.4060   13.8806 C.ar    1  UNL1        0.1490
     11 C          63.6419   82.0584   12.6369 C.ar    1  UNL1        0.1119
     12 C          64.0936   82.4552   11.2627 C.ar    1  UNL1        0.0238
     13 C          63.7341   81.6049   10.0803 C.ar    1  UNL1        0.0313
     14 C          62.9230   80.3579   10.2723 C.ar    1  UNL1        0.1425
     15 F          62.5635   79.5076    9.0900 F       1  UNL1       -0.2041
     16 C          62.4713   79.9611   11.6466 C.ar    1  UNL1        0.0608
     17 C          62.8307   80.8113   12.8289 C.ar    1  UNL1        0.1600
     18 F          62.3791   80.4145   14.2031 F       1  UNL1       -0.2025
     19 C          64.0530   88.7769   14.9447 C.ar    1  UNL1        0.0008
     20 C          64.6934   89.7596   14.0097 C.ar    1  UNL1        0.0043
     21 C          64.7322   91.2165   14.3644 C.ar    1  UNL1        0.0533
     22 C          64.1306   91.6907   15.6540 C.ar    1  UNL1        0.0042
     23 C          63.4902   90.7080   16.5890 C.ar    1  UNL1       -0.0041
     24 C          63.4514   89.2511   16.2343 C.ar    1  UNL1       -0.0217
     25 C          62.8110   88.2683   17.1693 C.3     1  UNL1        0.0310
     26 C          65.3726   92.1993   13.4294 C.2     1  UNL1        0.2458
     27 O          66.1289   93.3729   13.9779 O.2     1  UNL1       -0.2701
     28 N          65.2567   92.0084   11.9461 N.am    1  UNL1       -0.3025
     29 H          64.7603   91.2381   11.5862 H       1  UNL1        0.1497
     30 C          65.8971   92.9912   11.0112 C.3     1  UNL1        0.0720
     31 C          66.9390   93.3161    9.9822 C.3     1  UNL1        0.0213
     32 C          65.9644   94.3685   10.4211 C.3     1  UNL1        0.0213
     33 C          61.7541   85.4635   10.9709 C.3     1  UNL1        0.0266
     34 C          63.0806   85.0077   11.5026 C.3     1  UNL1        0.1105
@<TRIPOS>BOND
     1    33    34    1
     2    34     1    1
     3     1     2   ar
     4     2     3    2
     5     2     4   ar
     6     4    19    1
     7    19    20   ar
     8    20    21   ar
     9    21    26    1
    10    26    27    2
    11    26    28   am
    12    28    30    1
    13    30    31    1
    14    31    32    1
    15    21    22   ar
    16    22    23   ar
    17    23    24   ar
    18    24    25    1
    19     4     5   ar
    20     5     6   ar
    21     6     7   ar
    22     7     8   ar
    23     8     9   ar
    24     9    11    1
    25    11    12   ar
    26    12    13   ar
    27    13    14   ar
    28    14    15    1
    29    14    16   ar
    30    16    17   ar
    31    17    18    1
    32     9    10   ar
    33    10     1   ar
    34    24    19   ar
    35    10     6   ar
    36    32    30    1
    37    17    11   ar
    38    28    29    1
@<TRIPOS>MOLECULE
*****
 34 38 0 0 0
SMALL
GASTEIGER

@<TRIPOS>ATOM
      1 N          64.4461   90.5630   12.9310 N.ar    1  UNL1       -0.2806
      2 C          63.2798   89.7403   12.4695 C.ar    1  UNL1        0.2619
      3 O          62.7739   88.6130   13.3201 O.2     1  UNL1       -0.2669
      4 C          62.6194   90.0449   11.1577 C.ar    1  UNL1        0.0561
      5 C          63.1253   91.1722   10.3071 C.ar    1  UNL1        0.0093
      6 C          64.2916   91.9948   10.7685 C.ar    1  UNL1        0.0553
      7 C          65.0057   93.1596   10.1494 C.ar    1  UNL1        0.1235
      8 N          66.1075   93.5749   11.0787 N.ar    1  UNL1       -0.1621
      9 N          66.0743   92.6668   12.2722 N.ar    1  UNL1       -0.2115
     10 C          64.9520   91.6902   12.0804 C.ar    1  UNL1        0.1490
     11 C          67.0008   92.7250   13.4504 C.ar    1  UNL1        0.1119
     12 C          66.6027   93.4854   14.6806 C.ar    1  UNL1        0.0238
     13 C          67.5292   93.5437   15.8589 C.ar    1  UNL1        0.0313
     14 C          68.8536   92.8416   15.8070 C.ar    1  UNL1        0.1425
     15 F          69.7801   92.8999   16.9852 F       1  UNL1       -0.2041
     16 C          69.2517   92.0812   14.5767 C.ar    1  UNL1        0.0608
     17 C          68.3253   92.0229   13.3985 C.ar    1  UNL1        0.1600
     18 F          68.7234   91.2626   12.1683 F       1  UNL1       -0.2025
     19 C          61.4530   89.2222   10.6963 C.ar    1  UNL1        0.0008
     20 C          61.6247   88.2395    9.5761 C.ar    1  UNL1        0.0043
     21 C          60.4584   87.4168    9.1147 C.ar    1  UNL1        0.0533
     22 C          59.1204   87.5768    9.7735 C.ar    1  UNL1        0.0042
     23 C          58.9487   88.5595   10.8937 C.ar    1  UNL1       -0.0041
     24 C          60.1150   89.3821   11.3551 C.ar    1  UNL1       -0.0217
     25 C          59.9434   90.3648   12.4754 C.3     1  UNL1        0.0310
     26 C          60.6301   86.4342    7.9945 C.2     1  UNL1        0.2458
     27 O          59.4503   86.0377    7.1572 O.2     1  UNL1       -0.2701
     28 N          61.9816   85.8480    7.7115 N.am    1  UNL1       -0.3025
     29 H          62.7559   86.1083    8.2610 H       1  UNL1        0.1497
     30 C          62.1532   84.8654    6.5912 C.3     1  UNL1        0.0720
     31 C          63.0395   84.1495    5.6155 C.3     1  UNL1        0.0213
     32 C          61.5641   83.8792    5.6266 C.3     1  UNL1        0.0213
     33 C          64.4626   90.6939   15.5257 C.3     1  UNL1        0.0266
     34 C          65.1065   90.2584   14.2429 C.3     1  UNL1        0.1105
@<TRIPOS>BOND
     1    33    34    1
     2    34     1    1
     3     1     2   ar
     4     2     3    2
     5     2     4   ar
     6     4    19    1
     7    19    20   ar
     8    20    21   ar
     9    21    26    1
    10    26    27    2
    11    26    28   am
    12    28    30    1
    13    30    31    1
    14    31    32    1
    15    21    22   ar
    16    22    23   ar
    17    23    24   ar
    18    24    25    1
    19     4     5   ar
    20     5     6   ar
    21     6     7   ar
    22     7     8   ar
    23     8     9   ar
    24     9    11    1
    25    11    12   ar
    26    12    13   ar
    27    13    14   ar
    28    14    15    1
    29    14    16   ar
    30    16    17   ar
    31    17    18    1
    32     9    10   ar
    33    10     1   ar
    34    24    19   ar
    35    10     6   ar
    36    32    30    1
    37    17    11   ar
    38    28    29    1
@<TRIPOS>MOLECULE
*****
 34 38 0 0 0
SMALL
GASTEIGER

@<TRIPOS>ATOM
      1 N          63.6368   90.3660   11.9004 N.ar    1  UNL1       -0.2806
      2 C          62.7357   89.9386   10.7800 C.ar    1  UNL1        0.2619
      3 O          62.4022   90.8997    9.6776 O.2     1  UNL1       -0.2669
      4 C          62.1680   88.5504   10.7621 C.ar    1  UNL1        0.0561
      5 C          62.5015   87.5893   11.8645 C.ar    1  UNL1        0.0093
      6 C          63.4026   88.0167   12.9849 C.ar    1  UNL1        0.0553
      7 C          63.9051   87.2947   14.1999 C.ar    1  UNL1        0.1235
      8 N          64.7833   88.2368   14.9687 N.ar    1  UNL1       -0.1621
      9 N          64.8236   89.5411   14.2289 N.ar    1  UNL1       -0.2115
     10 C          63.9703   89.4051   13.0028 C.ar    1  UNL1        0.1490
     11 C          65.5838   90.7662   14.6426 C.ar    1  UNL1        0.1119
     12 C          66.8861   91.1009   13.9778 C.ar    1  UNL1        0.0238
     13 C          67.6463   92.3261   14.3915 C.ar    1  UNL1        0.0313
     14 C          67.1042   93.2165   15.4700 C.ar    1  UNL1        0.1425
     15 F          67.8644   94.4416   15.8837 F       1  UNL1       -0.2041
     16 C          65.8018   92.8818   16.1348 C.ar    1  UNL1        0.0608
     17 C          65.0416   91.6567   15.7211 C.ar    1  UNL1        0.1600
     18 F          63.7393   91.3221   16.3859 F       1  UNL1       -0.2025
     19 C          61.2668   88.1230    9.6416 C.ar    1  UNL1        0.0008
     20 C          60.7256   89.1427    8.6839 C.ar    1  UNL1        0.0043
     21 C          59.8244   88.7154    7.5635 C.ar    1  UNL1        0.0533
     22 C          59.4646   87.2683    7.4008 C.ar    1  UNL1        0.0042
     23 C          60.0059   86.2486    8.3585 C.ar    1  UNL1       -0.0041
     24 C          60.9070   86.6759    9.4789 C.ar    1  UNL1       -0.0217
     25 C          61.4483   85.6562   10.4367 C.3     1  UNL1        0.0310
     26 C          59.2831   89.7351    6.6058 C.2     1  UNL1        0.2458
     27 O          57.8018   89.9376    6.4841 O.2     1  UNL1       -0.2701
     28 N          60.2231   90.5522    5.7699 N.am    1  UNL1       -0.3025
     29 H          61.1953   90.4192    5.8498 H       1  UNL1        0.1497
     30 C          59.6817   91.5719    4.8122 C.3     1  UNL1        0.0720
     31 C          58.5142   92.2813    4.1928 C.3     1  UNL1        0.0213
     32 C          59.9117   92.6287    3.7728 C.3     1  UNL1        0.0213
     33 C          65.1562   92.1894   10.8437 C.3     1  UNL1        0.0266
     34 C          64.2045   91.7543   11.9184 C.3     1  UNL1        0.1105
@<TRIPOS>BOND
     1    33    34    1
     2    34     1    1
     3     1     2   ar
     4     2     3    2
     5     2     4   ar
     6     4    19    1
     7    19    20   ar
     8    20    21   ar
     9    21    26    1
    10    26    27    2
    11    26    28   am
    12    28    30    1
    13    30    31    1
    14    31    32    1
    15    21    22   ar
    16    22    23   ar
    17    23    24   ar
    18    24    25    1
    19     4     5   ar
    20     5     6   ar
    21     6     7   ar
    22     7     8   ar
    23     8     9   ar
    24     9    11    1
    25    11    12   ar
    26    12    13   ar
    27    13    14   ar
    28    14    15    1
    29    14    16   ar
    30    16    17   ar
    31    17    18    1
    32     9    10   ar
    33    10     1   ar
    34    24    19   ar
    35    10     6   ar
    36    32    30    1
    37    17    11   ar
    38    28    29    1
