@<TRIPOS>MOLECULE
*****
 34 38 0 0 0
SMALL
GASTEIGER

@<TRIPOS>ATOM
      1 N          65.0597   90.8317   13.7053 N.ar    1  UNL1       -0.3191
      2 C          65.9792   91.9115   13.2168 C.ar    1  UNL1        0.0594
      3 C          65.4951   92.3577   11.8690 C.ar    1  UNL1       -0.0052
      4 C          64.2765   91.5538   11.5246 C.ar    1  UNL1        0.0132
      5 C          63.3771   91.5587   10.3241 C.ar    1  UNL1        0.0012
      6 C          62.2087   90.6204   10.2586 C.ar    1  UNL1        0.0012
      7 C          61.9396   89.6772   11.3935 C.ar    1  UNL1        0.0154
      8 C          62.8390   89.6723   12.5940 C.ar    1  UNL1        0.0183
      9 C          64.0074   90.6106   12.6595 C.ar    1  UNL1        0.0600
     10 C          66.1199   93.4212   11.0155 C.3     1  UNL1        0.0238
     11 C          65.7902   94.8649   11.2548 C.3     1  UNL1        0.0044
     12 C          66.4150   95.9285   10.4013 C.3     1  UNL1        0.0003
     13 C          67.3696   95.5484    9.3084 C.3     1  UNL1        0.0000
     14 C          67.6993   94.1048    9.0691 C.3     1  UNL1        0.0003
     15 C          67.0745   93.0413    9.9227 C.3     1  UNL1        0.0044
     16 C          67.1731   92.4504   13.9477 C.ar    1  UNL1        0.0562
     17 C          67.1446   93.4439   15.0711 C.ar    1  UNL1        0.0452
     18 C          68.5590   93.6979   15.5013 C.ar    1  UNL1        0.1798
     19 O          69.4616   92.8614   14.6436 O.2     1  UNL1       -0.4473
     20 C          68.6051   92.0904   13.6835 C.ar    1  UNL1        0.1811
     21 C          60.7711   88.7389   11.3280 C.2     1  UNL1        0.0729
     22 O          60.7489   87.6388   10.3086 O.co2   1  UNL1       -0.5446
     23 O          59.6248   88.9008   12.2818 O.co2   1  UNL1       -0.5446
     24 C          65.1727   90.1012   15.0105 C.3     1  UNL1        0.1919
     25 N          62.8845   85.2794   15.8850 N.3     1  UNL1       -0.2698
     26 C          61.9964   86.2883   16.5508 C.3     1  UNL1        0.0939
     27 C          62.3465   87.7459   16.4987 C.3     1  UNL1        0.1108
     28 N          63.5846   88.1947   15.7807 N.am    1  UNL1       -0.2751
     29 C          63.9346   89.6524   15.7285 C.2     1  UNL1        0.2488
     30 O          63.0464   90.6612   16.3944 O.2     1  UNL1       -0.2728
     31 C          64.4727   87.1858   15.1148 C.3     1  UNL1        0.1108
     32 C          64.1227   85.7282   15.1670 C.3     1  UNL1        0.0939
     33 C          62.3917   83.0388   14.6656 C.3     1  UNL1        0.0188
     34 C          62.5346   83.8217   15.9371 C.3     1  UNL1        0.0722
@<TRIPOS>UNITY_ATOM_ATTR
22 1
charge -1
@<TRIPOS>BOND
     1    33    34    1
     2    34    25    1
     3    25    26    1
     4    26    27    1
     5    27    28    1
     6    28    29   am
     7    29    30    2
     8    29    24    1
     9    24     1    1
    10     1     2   ar
    11     2    16    1
    12    16    17   ar
    13    17    18   ar
    14    18    19   ar
    15    19    20   ar
    16     2     3   ar
    17     3    10    1
    18    10    11    1
    19    11    12    1
    20    12    13    1
    21    13    14    1
    22    14    15    1
    23     3     4   ar
    24     4     5   ar
    25     5     6   ar
    26     6     7   ar
    27     7    21    1
    28    21    22   ar
    29    21    23   ar
    30     7     8   ar
    31     8     9   ar
    32    28    31    1
    33    31    32    1
    34    32    25    1
    35     9     1   ar
    36    20    16   ar
    37    15    10    1
    38     9     4   ar
@<TRIPOS>MOLECULE
*****
 34 38 0 0 0
SMALL
GASTEIGER

@<TRIPOS>ATOM
      1 N          62.0950   88.3189   11.3097 N.ar    1  UNL1       -0.3191
      2 C          62.6910   87.0445   11.8301 C.ar    1  UNL1        0.0594
      3 C          62.3462   85.9454   10.8694 C.ar    1  UNL1       -0.0052
      4 C          61.5371   86.5404    9.7553 C.ar    1  UNL1        0.0132
      5 C          60.9217   85.9359    8.5281 C.ar    1  UNL1        0.0012
      6 C          60.1510   86.7984    7.5731 C.ar    1  UNL1        0.0012
      7 C          59.9957   88.2653    7.8452 C.ar    1  UNL1        0.0154
      8 C          60.6111   88.8698    9.0723 C.ar    1  UNL1        0.0183
      9 C          61.3818   88.0073   10.0273 C.ar    1  UNL1        0.0600
     10 C          62.7412   84.5042   10.9999 C.3     1  UNL1        0.0238
     11 C          63.7460   83.9134   10.0558 C.3     1  UNL1        0.0044
     12 C          64.1410   82.4723   10.1863 C.3     1  UNL1        0.0003
     13 C          63.5312   81.6218   11.2609 C.3     1  UNL1        0.0000
     14 C          62.5264   82.2126   12.2050 C.3     1  UNL1        0.0003
     15 C          62.1314   83.6538   12.0745 C.3     1  UNL1        0.0044
     16 C          63.4913   86.8956   13.0900 C.ar    1  UNL1        0.0562
     17 C          63.8668   85.6010   13.7481 C.ar    1  UNL1        0.0452
     18 C          64.6642   85.9203   14.9779 C.ar    1  UNL1        0.1798
     19 O          64.7814   87.4123   15.0798 O.2     1  UNL1       -0.4473
     20 C          64.0565   88.0150   13.9131 C.ar    1  UNL1        0.1811
     21 C          59.2250   89.1278    6.8901 C.2     1  UNL1        0.0729
     22 O          57.7266   89.0641    6.8639 O.co2   1  UNL1       -0.5446
     23 O          59.9527   90.0539    5.9613 O.co2   1  UNL1       -0.5446
     24 C          62.1946   89.6680   11.9578 C.3     1  UNL1        0.1919
     25 N          66.1069   92.7780   14.0244 N.3     1  UNL1       -0.2698
     26 C          66.0194   93.1315   12.5693 C.3     1  UNL1        0.0939
     27 C          65.0195   92.4424   11.6889 C.3     1  UNL1        0.1108
     28 N          64.1070   91.3997   12.2636 N.am    1  UNL1       -0.2751
     29 C          63.1070   90.7106   11.3832 C.2     1  UNL1        0.2488
     30 O          63.0196   91.0641    9.9280 O.2     1  UNL1       -0.2728
     31 C          64.1945   91.0462   13.7187 C.3     1  UNL1        0.1108
     32 C          65.1944   91.7354   14.5991 C.3     1  UNL1        0.0939
     33 C          67.7626   92.7161   16.0257 C.3     1  UNL1        0.0188
     34 C          67.1069   93.4672   14.9050 C.3     1  UNL1        0.0722
@<TRIPOS>UNITY_ATOM_ATTR
22 1
charge -1
@<TRIPOS>BOND
     1    33    34    1
     2    34    25    1
     3    25    26    1
     4    26    27    1
     5    27    28    1
     6    28    29   am
     7    29    30    2
     8    29    24    1
     9    24     1    1
    10     1     2   ar
    11     2    16    1
    12    16    17   ar
    13    17    18   ar
    14    18    19   ar
    15    19    20   ar
    16     2     3   ar
    17     3    10    1
    18    10    11    1
    19    11    12    1
    20    12    13    1
    21    13    14    1
    22    14    15    1
    23     3     4   ar
    24     4     5   ar
    25     5     6   ar
    26     6     7   ar
    27     7    21    1
    28    21    22   ar
    29    21    23   ar
    30     7     8   ar
    31     8     9   ar
    32    28    31    1
    33    31    32    1
    34    32    25    1
    35     9     1   ar
    36    20    16   ar
    37    15    10    1
    38     9     4   ar
