@<TRIPOS>MOLECULE
*****
 32 36 0 0 0
SMALL
GASTEIGER

@<TRIPOS>ATOM
      1 C          65.3160   91.4998   14.6552 C.ar    1  UNL1        0.0436
      2 C          66.3094   92.2334   15.5066 C.ar    1  UNL1        0.0142
      3 C          67.0745   93.3913   14.9374 C.ar    1  UNL1        0.0010
      4 C          66.8462   93.8155   13.5168 C.ar    1  UNL1       -0.0032
      5 C          65.8528   93.0818   12.6655 C.ar    1  UNL1       -0.0091
      6 C          65.0877   91.9240   13.2347 C.ar    1  UNL1       -0.0101
      7 C          64.0942   91.1903   12.3833 C.3     1  UNL1        0.0444
      8 C          63.8659   91.6145   10.9628 C.3     1  UNL1        0.0749
      9 N          64.6310   92.7724   10.3936 N.3     1  UNL1       -0.2934
     10 C          65.6244   93.5060   11.2450 C.3     1  UNL1        0.0954
     11 H          63.9416   93.4590   10.0876 H       1  UNL1        0.1236
     12 C          63.7573   88.0899   15.6597 C.3     1  UNL1        0.0791
     13 C          62.9895   89.0304   16.5408 C.3     1  UNL1        0.0391
     14 C          63.4800   90.4221   16.2717 C.3     1  UNL1        0.0923
     15 N          64.5509   90.3419   15.2244 N.pl3   1  UNL1       -0.3063
     16 C          64.7222   88.9005   14.8462 C.3     1  UNL1        0.1067
     17 C          64.1592   85.8253   14.4514 C.3     1  UNL1        0.0897
     18 N          63.5895   86.6004   15.6024 N.3     1  UNL1       -0.2699
     19 C          62.8521   85.8861   16.6959 C.3     1  UNL1        0.0897
     20 C          62.8725   90.8808   10.1114 C.3     1  UNL1        0.0886
     21 N          61.7845   90.0734   10.7552 N.3     1  UNL1       -0.2667
     22 C          60.7584   90.7490   11.6159 C.3     1  UNL1        0.0899
     23 C          61.7227   88.5905   10.5384 C.3     1  UNL1        0.0978
     24 C          62.5021   87.6691   11.4293 C.3     1  UNL1        0.0224
     25 C          62.4402   86.1862   11.2125 C.3     1  UNL1        0.0065
     26 C          61.5990   85.6246   10.1048 C.3     1  UNL1        0.0277
     27 C          60.8197   86.5459    9.2139 C.ar    1  UNL1       -0.0073
     28 C          59.9785   85.9843    8.1062 C.ar    1  UNL1       -0.0015
     29 C          59.1991   86.9057    7.2153 C.ar    1  UNL1        0.0203
     30 C          59.2610   88.3886    7.4321 C.ar    1  UNL1        0.0985
     31 N          60.1022   88.9502    8.5398 N.ar    1  UNL1       -0.2471
     32 C          60.8815   88.0289    9.4307 C.ar    1  UNL1        0.0695
@<TRIPOS>BOND
     1    17    18    1
     2    18    19    1
     3    12    18    1
     4    12    13    1
     5    13    14    1
     6    14    15    1
     7    15     1    1
     8     1     2   ar
     9     2     3   ar
    10     3     4   ar
    11     4     5   ar
    12     5     6   ar
    13     6     7    1
    14     7     8    1
    15     8    20    1
    16    20    21    1
    17    21    22    1
    18    23    21    1
    19    23    24    1
    20    24    25    1
    21    25    26    1
    22    26    27    1
    23    27    28   ar
    24    28    29   ar
    25    29    30   ar
    26    30    31   ar
    27    31    32   ar
    28     8     9    1
    29     9    10    1
    30    15    16    1
    31    16    12    1
    32     6     1   ar
    33    32    23    1
    34    10     5    1
    35    32    27   ar
    36     9    11    1
@<TRIPOS>MOLECULE
*****
 32 36 0 0 0
SMALL
GASTEIGER

@<TRIPOS>ATOM
      1 C          62.6410   84.1477   11.8722 C.ar    1  UNL1        0.0436
      2 C          62.3187   82.7115   11.5832 C.ar    1  UNL1        0.0142
      3 C          62.7263   81.6417   12.5523 C.ar    1  UNL1        0.0010
      4 C          63.4563   82.0080   13.8105 C.ar    1  UNL1       -0.0032
      5 C          63.7786   83.4441   14.0995 C.ar    1  UNL1       -0.0091
      6 C          63.3710   84.5140   13.1304 C.ar    1  UNL1       -0.0101
      7 C          63.6933   85.9502   13.4194 C.3     1  UNL1        0.0444
      8 C          64.4232   86.3165   14.6776 C.3     1  UNL1        0.0749
      9 N          64.8309   85.2466   15.6467 N.3     1  UNL1       -0.2934
     10 C          64.5086   83.8104   15.3577 C.3     1  UNL1        0.0954
     11 H          64.3904   85.4735   16.5383 H       1  UNL1        0.1236
     12 C          61.1415   87.1520    9.9252 C.3     1  UNL1        0.0791
     13 C          62.0708   86.5759    8.8982 C.3     1  UNL1        0.0391
     14 C          62.7456   85.3803    9.5026 C.3     1  UNL1        0.0923
     15 N          62.2334   85.2176   10.9031 N.pl3   1  UNL1       -0.3063
     16 C          61.2420   86.3125   11.1642 C.3     1  UNL1        0.1067
     17 C          59.6201   88.9995   10.9362 C.3     1  UNL1        0.0897
     18 N          60.2655   88.3562    9.7447 N.3     1  UNL1       -0.2699
     19 C          60.0349   88.9172    8.3728 C.3     1  UNL1        0.0897
     20 C          64.7456   87.7526   14.9666 C.3     1  UNL1        0.0886
     21 N          63.7120   88.8146   14.7346 N.3     1  UNL1       -0.2667
     22 C          62.5958   89.0027   15.7189 C.3     1  UNL1        0.0899
     23 C          63.7946   89.6886   13.5183 C.3     1  UNL1        0.0978
     24 C          63.0047   89.3425   12.2910 C.3     1  UNL1        0.0224
     25 C          63.0873   90.2164   11.0747 C.3     1  UNL1        0.0065
     26 C          63.9598   91.4365   11.0857 C.3     1  UNL1        0.0277
     27 C          64.7497   91.7827   12.3130 C.ar    1  UNL1       -0.0073
     28 C          65.6221   93.0028   12.3240 C.ar    1  UNL1       -0.0015
     29 C          66.4121   93.3489   13.5514 C.ar    1  UNL1        0.0203
     30 C          66.3294   92.4749   14.7676 C.ar    1  UNL1        0.0985
     31 N          65.4570   91.2548   14.7566 N.ar    1  UNL1       -0.2471
     32 C          64.6671   90.9087   13.5294 C.ar    1  UNL1        0.0695
@<TRIPOS>BOND
     1    17    18    1
     2    18    19    1
     3    12    18    1
     4    12    13    1
     5    13    14    1
     6    14    15    1
     7    15     1    1
     8     1     2   ar
     9     2     3   ar
    10     3     4   ar
    11     4     5   ar
    12     5     6   ar
    13     6     7    1
    14     7     8    1
    15     8    20    1
    16    20    21    1
    17    21    22    1
    18    23    21    1
    19    23    24    1
    20    24    25    1
    21    25    26    1
    22    26    27    1
    23    27    28   ar
    24    28    29   ar
    25    29    30   ar
    26    30    31   ar
    27    31    32   ar
    28     8     9    1
    29     9    10    1
    30    15    16    1
    31    16    12    1
    32     6     1   ar
    33    32    23    1
    34    10     5    1
    35    32    27   ar
    36     9    11    1
@<TRIPOS>MOLECULE
*****
 32 36 0 0 0
SMALL
GASTEIGER

@<TRIPOS>ATOM
      1 C          65.0533   90.8114   13.8896 C.ar    1  UNL1        0.0436
      2 C          66.4237   91.3336   14.2046 C.ar    1  UNL1        0.0142
      3 C          67.1463   92.1920   13.2091 C.ar    1  UNL1        0.0010
      4 C          66.4985   92.5282   11.8987 C.ar    1  UNL1       -0.0032
      5 C          65.1281   92.0060   11.5837 C.ar    1  UNL1       -0.0091
      6 C          64.4055   91.1476   12.5791 C.ar    1  UNL1       -0.0101
      7 C          63.0350   90.6254   12.2641 C.3     1  UNL1        0.0444
      8 C          62.3872   90.9616   10.9537 C.3     1  UNL1        0.0749
      9 N          63.1099   91.8201    9.9582 N.3     1  UNL1       -0.2934
     10 C          64.4802   92.3423   10.2732 C.3     1  UNL1        0.0954
     11 H          62.5178   92.6324    9.7852 H       1  UNL1        0.1236
     12 C          63.5108   88.0183   16.0997 C.3     1  UNL1        0.0791
     13 C          62.9265   89.2456   16.7340 C.3     1  UNL1        0.0391
     14 C          63.4333   90.4413   15.9833 C.3     1  UNL1        0.0923
     15 N          64.3307   89.9529   14.8850 N.pl3   1  UNL1       -0.3063
     16 C          64.3785   88.4554   14.9570 C.3     1  UNL1        0.1067
     17 C          62.4262   86.3205   17.7402 C.3     1  UNL1        0.0897
     18 N          63.2695   86.6024   16.5322 N.3     1  UNL1       -0.2699
     19 C          63.8716   85.4683   15.7567 C.3     1  UNL1        0.0897
     20 C          61.0168   90.4394   10.6386 C.3     1  UNL1        0.0886
     21 N          60.6342   89.0461   11.0416 N.3     1  UNL1       -0.2667
     22 C          59.9499   88.8063   12.3548 C.3     1  UNL1        0.0899
     23 C          60.9358   87.8926   10.1314 C.3     1  UNL1        0.0978
     24 C          60.3930   87.8787    8.7331 C.3     1  UNL1        0.0224
     25 C          60.6945   86.7252    7.8229 C.3     1  UNL1        0.0065
     26 C          61.5390   85.5856    8.3110 C.3     1  UNL1        0.0277
     27 C          62.0818   85.5994    9.7092 C.ar    1  UNL1       -0.0073
     28 C          62.9262   84.4598   10.1973 C.ar    1  UNL1       -0.0015
     29 C          63.4690   84.4737   11.5956 C.ar    1  UNL1        0.0203
     30 C          63.1674   85.6272   12.5058 C.ar    1  UNL1        0.0985
     31 N          62.3230   86.7668   12.0177 N.ar    1  UNL1       -0.2471
     32 C          61.7802   86.7530   10.6195 C.ar    1  UNL1        0.0695
@<TRIPOS>BOND
     1    17    18    1
     2    18    19    1
     3    12    18    1
     4    12    13    1
     5    13    14    1
     6    14    15    1
     7    15     1    1
     8     1     2   ar
     9     2     3   ar
    10     3     4   ar
    11     4     5   ar
    12     5     6   ar
    13     6     7    1
    14     7     8    1
    15     8    20    1
    16    20    21    1
    17    21    22    1
    18    23    21    1
    19    23    24    1
    20    24    25    1
    21    25    26    1
    22    26    27    1
    23    27    28   ar
    24    28    29   ar
    25    29    30   ar
    26    30    31   ar
    27    31    32   ar
    28     8     9    1
    29     9    10    1
    30    15    16    1
    31    16    12    1
    32     6     1   ar
    33    32    23    1
    34    10     5    1
    35    32    27   ar
    36     9    11    1
@<TRIPOS>MOLECULE
*****
 32 36 0 0 0
SMALL
GASTEIGER

@<TRIPOS>ATOM
      1 C          61.6404   86.3978    9.9973 C.ar    1  UNL1        0.0436
      2 C          60.6180   86.2927    8.9049 C.ar    1  UNL1        0.0142
      3 C          59.8370   87.5041    8.4896 C.ar    1  UNL1        0.0010
      4 C          60.0784   88.8206    9.1668 C.ar    1  UNL1       -0.0032
      5 C          61.1008   88.9256   10.2593 C.ar    1  UNL1       -0.0091
      6 C          61.8818   87.7142   10.6746 C.ar    1  UNL1       -0.0101
      7 C          62.9043   87.8193   11.7671 C.3     1  UNL1        0.0444
      8 C          63.1457   89.1357   12.4443 C.3     1  UNL1        0.0749
      9 N          62.3646   90.3472   12.0290 N.3     1  UNL1       -0.2934
     10 C          61.3422   90.2421   10.9365 C.3     1  UNL1        0.0954
     11 H          63.0437   91.0473   11.7304 H       1  UNL1        0.1236
     12 C          63.3268   83.3666   11.7391 C.3     1  UNL1        0.0791
     13 C          63.9201   83.2778   10.3642 C.3     1  UNL1        0.0391
     14 C          63.3605   84.4024    9.5445 C.3     1  UNL1        0.0923
     15 N          62.4215   85.1863   10.4127 N.pl3   1  UNL1       -0.3063
     16 C          62.4007   84.5462   11.7690 C.3     1  UNL1        0.1067
     17 C          63.3740   80.9654   12.7301 C.3     1  UNL1        0.0897
     18 N          63.6100   82.4388   12.8832 N.3     1  UNL1       -0.2699
     19 C          64.1292   82.9843   14.1804 C.3     1  UNL1        0.0897
     20 C          64.1681   89.2408   13.5368 C.3     1  UNL1        0.0886
     21 N          64.0766   90.3469   14.5459 N.3     1  UNL1       -0.2667
     22 C          62.9857   90.3345   15.5754 C.3     1  UNL1        0.0899
     23 C          65.0759   91.4654   14.5254 C.3     1  UNL1        0.0978
     24 C          65.8039   91.8438   15.7812 C.3     1  UNL1        0.0224
     25 C          66.8031   92.9623   15.7607 C.3     1  UNL1        0.0065
     26 C          67.0745   93.7023   14.4845 C.3     1  UNL1        0.0277
     27 C          66.3466   93.3239   13.2287 C.ar    1  UNL1       -0.0073
     28 C          66.6179   94.0640   11.9525 C.ar    1  UNL1       -0.0015
     29 C          65.8899   93.6855   10.6968 C.ar    1  UNL1        0.0203
     30 C          64.8907   92.5671   10.7172 C.ar    1  UNL1        0.0985
     31 N          64.6193   91.8270   11.9935 N.ar    1  UNL1       -0.2471
     32 C          65.3472   92.2054   13.2492 C.ar    1  UNL1        0.0695
@<TRIPOS>BOND
     1    17    18    1
     2    18    19    1
     3    12    18    1
     4    12    13    1
     5    13    14    1
     6    14    15    1
     7    15     1    1
     8     1     2   ar
     9     2     3   ar
    10     3     4   ar
    11     4     5   ar
    12     5     6   ar
    13     6     7    1
    14     7     8    1
    15     8    20    1
    16    20    21    1
    17    21    22    1
    18    23    21    1
    19    23    24    1
    20    24    25    1
    21    25    26    1
    22    26    27    1
    23    27    28   ar
    24    28    29   ar
    25    29    30   ar
    26    30    31   ar
    27    31    32   ar
    28     8     9    1
    29     9    10    1
    30    15    16    1
    31    16    12    1
    32     6     1   ar
    33    32    23    1
    34    10     5    1
    35    32    27   ar
    36     9    11    1
@<TRIPOS>MOLECULE
*****
 32 36 0 0 0
SMALL
GASTEIGER

@<TRIPOS>ATOM
      1 C          61.2561   86.3785    9.3681 C.ar    1  UNL1        0.0436
      2 C          60.6143   85.9544    8.0805 C.ar    1  UNL1        0.0142
      3 C          59.7236   86.9056    7.3375 C.ar    1  UNL1        0.0010
      4 C          59.4749   88.2809    7.8822 C.ar    1  UNL1       -0.0032
      5 C          60.1167   88.7050    9.1699 C.ar    1  UNL1       -0.0091
      6 C          61.0073   87.7538    9.9128 C.ar    1  UNL1       -0.0101
      7 C          61.6492   88.1779   11.2006 C.3     1  UNL1        0.0444
      8 C          61.4004   89.5532   11.7453 C.3     1  UNL1        0.0749
      9 N          60.5097   90.5044   11.0022 N.3     1  UNL1       -0.2934
     10 C          59.8679   90.0803    9.7146 C.3     1  UNL1        0.0954
     11 H          61.0702   91.3307   10.7937 H       1  UNL1        0.1236
     12 C          63.1846   84.1553   11.8987 C.3     1  UNL1        0.0791
     13 C          63.8502   83.7720   10.6102 C.3     1  UNL1        0.0391
     14 C          63.2087   84.5582    9.5055 C.3     1  UNL1        0.0923
     15 N          62.1468   85.4274   10.1111 N.pl3   1  UNL1       -0.3063
     16 C          62.1319   85.1784   11.5902 C.3     1  UNL1        0.1067
     17 C          64.6975   84.1415   14.0108 C.3     1  UNL1        0.0897
     18 N          63.5140   83.6111   13.2572 N.3     1  UNL1       -0.2699
     19 C          62.6599   82.5366   13.8620 C.3     1  UNL1        0.0897
     20 C          62.0423   89.9773   13.0329 C.3     1  UNL1        0.0886
     21 N          63.5365   89.9691   13.1645 N.3     1  UNL1       -0.2667
     22 C          64.2246   88.8131   13.8281 C.3     1  UNL1        0.0899
     23 C          64.3426   91.1168   12.6326 C.3     1  UNL1        0.0978
     24 C          64.2385   91.4996   11.1860 C.3     1  UNL1        0.0224
     25 C          65.0446   92.6473   10.6540 C.3     1  UNL1        0.0065
     26 C          65.9548   93.4122   11.5687 C.3     1  UNL1        0.0277
     27 C          66.0589   93.0294   13.0152 C.ar    1  UNL1       -0.0073
     28 C          66.9690   93.7942   13.9299 C.ar    1  UNL1       -0.0015
     29 C          67.0731   93.4114   15.3765 C.ar    1  UNL1        0.0203
     30 C          66.2670   92.2637   15.9084 C.ar    1  UNL1        0.0985
     31 N          65.3568   91.4988   14.9938 N.ar    1  UNL1       -0.2471
     32 C          65.2527   91.8816   13.5472 C.ar    1  UNL1        0.0695
@<TRIPOS>BOND
     1    17    18    1
     2    18    19    1
     3    12    18    1
     4    12    13    1
     5    13    14    1
     6    14    15    1
     7    15     1    1
     8     1     2   ar
     9     2     3   ar
    10     3     4   ar
    11     4     5   ar
    12     5     6   ar
    13     6     7    1
    14     7     8    1
    15     8    20    1
    16    20    21    1
    17    21    22    1
    18    23    21    1
    19    23    24    1
    20    24    25    1
    21    25    26    1
    22    26    27    1
    23    27    28   ar
    24    28    29   ar
    25    29    30   ar
    26    30    31   ar
    27    31    32   ar
    28     8     9    1
    29     9    10    1
    30    15    16    1
    31    16    12    1
    32     6     1   ar
    33    32    23    1
    34    10     5    1
    35    32    27   ar
    36     9    11    1
@<TRIPOS>MOLECULE
*****
 32 36 0 0 0
SMALL
GASTEIGER

@<TRIPOS>ATOM
      1 C          62.8918   84.5848   11.8603 C.ar    1  UNL1        0.0436
      2 C          62.9023   83.0978   12.0564 C.ar    1  UNL1        0.0142
      3 C          63.4040   82.5147   13.3441 C.ar    1  UNL1        0.0010
      4 C          63.8953   83.4187   14.4357 C.ar    1  UNL1       -0.0032
      5 C          63.8848   84.9057   14.2396 C.ar    1  UNL1       -0.0091
      6 C          63.3830   85.4888   12.9519 C.ar    1  UNL1       -0.0101
      7 C          63.3725   86.9759   12.7557 C.3     1  UNL1        0.0444
      8 C          63.8637   87.8799   13.8473 C.3     1  UNL1        0.0749
      9 N          64.3655   87.2968   15.1350 N.3     1  UNL1       -0.2934
     10 C          64.3760   85.8097   15.3312 C.3     1  UNL1        0.0954
     11 H          63.7887   87.6879   15.8798 H       1  UNL1        0.1236
     12 C          61.0807   86.4304    8.9656 C.3     1  UNL1        0.0791
     13 C          62.1555   85.7002    8.2161 C.3     1  UNL1        0.0391
     14 C          62.9648   84.9200    9.2093 C.3     1  UNL1        0.0923
     15 N          62.3901   85.1680   10.5725 N.pl3   1  UNL1       -0.3063
     16 C          61.2257   86.1015   10.4219 C.3     1  UNL1        0.1067
     17 C          60.0930   88.8085    8.6203 C.3     1  UNL1        0.0897
     18 N          60.0431   87.3314    8.3643 N.3     1  UNL1       -0.2699
     19 C          58.9554   86.7553    7.5069 C.3     1  UNL1        0.0897
     20 C          63.8532   89.3670   13.6511 C.3     1  UNL1        0.0886
     21 N          64.1197   90.2785   14.8122 N.3     1  UNL1       -0.2667
     22 C          63.4218   90.0506   16.1203 C.3     1  UNL1        0.0899
     23 C          65.0841   91.4179   14.6652 C.3     1  UNL1        0.0978
     24 C          65.8634   91.8989   15.8533 C.3     1  UNL1        0.0224
     25 C          66.8278   93.0383   15.7063 C.3     1  UNL1        0.0065
     26 C          67.0130   93.6968   14.3713 C.3     1  UNL1        0.0277
     27 C          66.2337   93.2158   13.1833 C.ar    1  UNL1       -0.0073
     28 C          66.4189   93.8743   11.8483 C.ar    1  UNL1       -0.0015
     29 C          65.6396   93.3933   10.6603 C.ar    1  UNL1        0.0203
     30 C          64.6752   92.2539   10.8072 C.ar    1  UNL1        0.0985
     31 N          64.4900   91.5954   12.1422 N.ar    1  UNL1       -0.2471
     32 C          65.2693   92.0764   13.3302 C.ar    1  UNL1        0.0695
@<TRIPOS>BOND
     1    17    18    1
     2    18    19    1
     3    12    18    1
     4    12    13    1
     5    13    14    1
     6    14    15    1
     7    15     1    1
     8     1     2   ar
     9     2     3   ar
    10     3     4   ar
    11     4     5   ar
    12     5     6   ar
    13     6     7    1
    14     7     8    1
    15     8    20    1
    16    20    21    1
    17    21    22    1
    18    23    21    1
    19    23    24    1
    20    24    25    1
    21    25    26    1
    22    26    27    1
    23    27    28   ar
    24    28    29   ar
    25    29    30   ar
    26    30    31   ar
    27    31    32   ar
    28     8     9    1
    29     9    10    1
    30    15    16    1
    31    16    12    1
    32     6     1   ar
    33    32    23    1
    34    10     5    1
    35    32    27   ar
    36     9    11    1
@<TRIPOS>MOLECULE
*****
 32 36 0 0 0
SMALL
GASTEIGER

@<TRIPOS>ATOM
      1 C          61.4389   86.3605    9.4279 C.ar    1  UNL1        0.0436
      2 C          60.5030   86.1034    8.2842 C.ar    1  UNL1        0.0142
      3 C          59.6205   87.2042    7.7753 C.ar    1  UNL1        0.0010
      4 C          59.6738   88.5623    8.4099 C.ar    1  UNL1       -0.0032
      5 C          60.6097   88.8195    9.5536 C.ar    1  UNL1       -0.0091
      6 C          61.4922   87.7186   10.0626 C.ar    1  UNL1       -0.0101
      7 C          62.4281   87.9757   11.2063 C.3     1  UNL1        0.0444
      8 C          62.4814   89.3338   11.8410 C.3     1  UNL1        0.0749
      9 N          61.5988   90.4347   11.3319 N.3     1  UNL1       -0.2934
     10 C          60.6630   90.1775   10.1883 C.3     1  UNL1        0.0954
     11 H          62.2139   91.1957   11.0437 H       1  UNL1        0.1236
     12 C          63.3381   83.6000   11.3870 C.3     1  UNL1        0.0791
     13 C          64.0212   83.5309   10.0533 C.3     1  UNL1        0.0391
     14 C          63.3928   84.5566    9.1571 C.3     1  UNL1        0.0923
     15 N          62.3215   85.2596    9.9369 N.pl3   1  UNL1       -0.3063
     16 C          62.2877   84.6684   11.3151 C.3     1  UNL1        0.1067
     17 C          64.4701   83.3100   13.7075 C.3     1  UNL1        0.0897
     18 N          63.6507   82.7500   12.5828 N.3     1  UNL1       -0.2699
     19 C          63.1440   81.3400   12.6537 C.3     1  UNL1        0.0897
     20 C          63.4173   89.5910   12.9846 C.3     1  UNL1        0.0886
     21 N          64.2095   90.8637   13.0338 N.3     1  UNL1       -0.2667
     22 C          64.4997   91.6159   11.7688 C.3     1  UNL1        0.0899
     23 C          64.7116   91.3843   14.3479 C.3     1  UNL1        0.0978
     24 C          63.7763   91.5018   15.5148 C.3     1  UNL1        0.0224
     25 C          64.2783   92.0224   16.8289 C.3     1  UNL1        0.0065
     26 C          65.7156   92.4256   16.9762 C.3     1  UNL1        0.0277
     27 C          66.6509   92.3081   15.8094 C.ar    1  UNL1       -0.0073
     28 C          68.0881   92.7112   15.9567 C.ar    1  UNL1       -0.0015
     29 C          69.0234   92.5937   14.7898 C.ar    1  UNL1        0.0203
     30 C          68.5214   92.0731   13.4757 C.ar    1  UNL1        0.0985
     31 N          67.0841   91.6700   13.3284 N.ar    1  UNL1       -0.2471
     32 C          66.1488   91.7875   14.4952 C.ar    1  UNL1        0.0695
@<TRIPOS>BOND
     1    17    18    1
     2    18    19    1
     3    12    18    1
     4    12    13    1
     5    13    14    1
     6    14    15    1
     7    15     1    1
     8     1     2   ar
     9     2     3   ar
    10     3     4   ar
    11     4     5   ar
    12     5     6   ar
    13     6     7    1
    14     7     8    1
    15     8    20    1
    16    20    21    1
    17    21    22    1
    18    23    21    1
    19    23    24    1
    20    24    25    1
    21    25    26    1
    22    26    27    1
    23    27    28   ar
    24    28    29   ar
    25    29    30   ar
    26    30    31   ar
    27    31    32   ar
    28     8     9    1
    29     9    10    1
    30    15    16    1
    31    16    12    1
    32     6     1   ar
    33    32    23    1
    34    10     5    1
    35    32    27   ar
    36     9    11    1
@<TRIPOS>MOLECULE
*****
 32 36 0 0 0
SMALL
GASTEIGER

@<TRIPOS>ATOM
      1 C          63.1508   85.1082   11.7032 C.ar    1  UNL1        0.0436
      2 C          63.4815   83.6636   11.9353 C.ar    1  UNL1        0.0142
      3 C          64.1416   83.2415   13.2143 C.ar    1  UNL1        0.0010
      4 C          64.4710   84.2638   14.2613 C.ar    1  UNL1       -0.0032
      5 C          64.1403   85.7084   14.0293 C.ar    1  UNL1       -0.0091
      6 C          63.4803   86.1306   12.7502 C.ar    1  UNL1       -0.0101
      7 C          63.1496   87.5752   12.5181 C.3     1  UNL1        0.0444
      8 C          63.4790   88.5976   13.5651 C.3     1  UNL1        0.0749
      9 N          64.1391   88.1753   14.8442 N.3     1  UNL1       -0.2934
     10 C          64.4697   86.7308   15.0763 C.3     1  UNL1        0.0954
     11 H          63.5206   88.4614   15.6031 H       1  UNL1        0.1236
     12 C          60.9778   86.5841    8.8457 C.3     1  UNL1        0.0791
     13 C          61.9723   85.7761    8.0658 C.3     1  UNL1        0.0391
     14 C          62.9073   85.1249    9.0413 C.3     1  UNL1        0.0923
     15 N          62.4907   85.5304   10.4241 N.pl3   1  UNL1       -0.3063
     16 C          61.2982   86.4322   10.3032 C.3     1  UNL1        0.1067
     17 C          59.9176   88.8983    8.3259 C.3     1  UNL1        0.0897
     18 N          59.8592   87.4005    8.2693 N.3     1  UNL1       -0.2699
     19 C          58.6823   86.7193    7.6364 C.3     1  UNL1        0.0897
     20 C          63.1483   90.0421   13.3330 C.3     1  UNL1        0.0886
     21 N          63.4808   90.6860   12.0197 N.3     1  UNL1       -0.2667
     22 C          62.7684   90.2557   10.7717 C.3     1  UNL1        0.0899
     23 C          64.5256   91.7602   11.9543 C.3     1  UNL1        0.0978
     24 C          64.8603   92.4020   10.6404 C.3     1  UNL1        0.0224
     25 C          65.9051   93.4762   10.5750 C.3     1  UNL1        0.0065
     26 C          66.6154   93.9087   11.8234 C.3     1  UNL1        0.0277
     27 C          66.2808   93.2670   13.1372 C.ar    1  UNL1       -0.0073
     28 C          66.9910   93.6995   14.3856 C.ar    1  UNL1       -0.0015
     29 C          66.6563   93.0578   15.6995 C.ar    1  UNL1        0.0203
     30 C          65.6115   91.9835   15.7649 C.ar    1  UNL1        0.0985
     31 N          64.9013   91.5510   14.5165 N.ar    1  UNL1       -0.2471
     32 C          65.2359   92.1927   13.2027 C.ar    1  UNL1        0.0695
@<TRIPOS>BOND
     1    17    18    1
     2    18    19    1
     3    12    18    1
     4    12    13    1
     5    13    14    1
     6    14    15    1
     7    15     1    1
     8     1     2   ar
     9     2     3   ar
    10     3     4   ar
    11     4     5   ar
    12     5     6   ar
    13     6     7    1
    14     7     8    1
    15     8    20    1
    16    20    21    1
    17    21    22    1
    18    23    21    1
    19    23    24    1
    20    24    25    1
    21    25    26    1
    22    26    27    1
    23    27    28   ar
    24    28    29   ar
    25    29    30   ar
    26    30    31   ar
    27    31    32   ar
    28     8     9    1
    29     9    10    1
    30    15    16    1
    31    16    12    1
    32     6     1   ar
    33    32    23    1
    34    10     5    1
    35    32    27   ar
    36     9    11    1
@<TRIPOS>MOLECULE
*****
 32 36 0 0 0
SMALL
GASTEIGER

@<TRIPOS>ATOM
      1 C          63.9268   90.6614   12.3106 C.ar    1  UNL1        0.0436
      2 C          63.5089   91.5335   11.1640 C.ar    1  UNL1        0.0142
      3 C          62.6681   90.9670   10.0585 C.ar    1  UNL1        0.0010
      4 C          62.2452   89.5285   10.0996 C.ar    1  UNL1       -0.0032
      5 C          62.6631   88.6563   11.2461 C.ar    1  UNL1       -0.0091
      6 C          63.5039   89.2228   12.3516 C.ar    1  UNL1       -0.0101
      7 C          63.9219   88.3507   13.4983 C.3     1  UNL1        0.0444
      8 C          63.4990   86.9121   13.5394 C.3     1  UNL1        0.0749
      9 N          62.6582   86.3456   12.4338 N.3     1  UNL1       -0.2934
     10 C          62.2403   87.2178   11.2872 C.3     1  UNL1        0.0954
     11 H          61.8025   85.9954   12.8645 H       1  UNL1        0.1236
     12 C          66.6346   92.1798   14.6404 C.3     1  UNL1        0.0791
     13 C          65.4883   92.0191   15.5945 C.3     1  UNL1        0.0391
     14 C          64.3345   91.4307   14.8379 C.3     1  UNL1        0.0923
     15 N          64.7676   91.2278   13.4161 N.pl3   1  UNL1       -0.3063
     16 C          66.1892   91.6907   13.2941 C.3     1  UNL1        0.1067
     17 C          69.2026   92.2311   14.2496 C.3     1  UNL1        0.0897
     18 N          67.9886   92.7325   14.9740 N.3     1  UNL1       -0.2699
     19 C          68.1285   93.7866   16.0320 C.3     1  UNL1        0.0897
     20 C          63.9170   86.0400   14.6860 C.3     1  UNL1        0.0886
     21 N          64.5179   84.6912   14.4222 N.3     1  UNL1       -0.2667
     22 C          66.0028   84.5003   14.5164 C.3     1  UNL1        0.0899
     23 C          63.6341   83.5333   14.0641 C.3     1  UNL1        0.0978
     24 C          62.7057   82.9533   15.0896 C.3     1  UNL1        0.0224
     25 C          61.8219   81.7954   14.7316 C.3     1  UNL1        0.0065
     26 C          61.8665   81.2175   13.3481 C.3     1  UNL1        0.0277
     27 C          62.7949   81.7975   12.3227 C.ar    1  UNL1       -0.0073
     28 C          62.8395   81.2196   10.9392 C.ar    1  UNL1       -0.0015
     29 C          63.7680   81.7996    9.9137 C.ar    1  UNL1        0.0203
     30 C          64.6518   82.9575   10.2717 C.ar    1  UNL1        0.0985
     31 N          64.6072   83.5354   11.6552 N.ar    1  UNL1       -0.2471
     32 C          63.6788   82.9554   12.6807 C.ar    1  UNL1        0.0695
@<TRIPOS>BOND
     1    17    18    1
     2    18    19    1
     3    12    18    1
     4    12    13    1
     5    13    14    1
     6    14    15    1
     7    15     1    1
     8     1     2   ar
     9     2     3   ar
    10     3     4   ar
    11     4     5   ar
    12     5     6   ar
    13     6     7    1
    14     7     8    1
    15     8    20    1
    16    20    21    1
    17    21    22    1
    18    23    21    1
    19    23    24    1
    20    24    25    1
    21    25    26    1
    22    26    27    1
    23    27    28   ar
    24    28    29   ar
    25    29    30   ar
    26    30    31   ar
    27    31    32   ar
    28     8     9    1
    29     9    10    1
    30    15    16    1
    31    16    12    1
    32     6     1   ar
    33    32    23    1
    34    10     5    1
    35    32    27   ar
    36     9    11    1
