@<TRIPOS>MOLECULE
*****
 86 91 0 0 0
SMALL
GASTEIGER

@<TRIPOS>ATOM
      1 C          60.1489   89.4259    7.9889 C.3     1  UNL1        0.0001
      2 C          59.1490   90.0686    7.0740 C.3     1  UNL1        0.0001
      3 C          59.5025   90.3268    5.6394 C.3     1  UNL1        0.0017
      4 C          59.2040   91.6608    5.0218 C.3     1  UNL1        0.0212
      5 C          58.8678   91.7534    3.5629 C.3     1  UNL1        0.0882
      6 N          59.6208   92.7025    2.6785 N.pl3   1  UNL1       -0.3180
      7 H          59.1411   93.4206    2.2058 H       1  UNL1        0.1482
      8 C          61.1048   92.5575    2.5143 C.ar    1  UNL1        0.1317
      9 N          61.9503   92.1337    3.6786 N.ar    1  UNL1       -0.2092
     10 C          63.4342   91.9886    3.5144 C.ar    1  UNL1        0.2000
     11 N          64.0726   92.2674    2.1860 N.ar    1  UNL1       -0.2238
     12 C          63.2271   92.6912    1.0217 C.ar    1  UNL1        0.0888
     13 C          63.8655   92.9699   -0.3067 C.ar    1  UNL1        0.0574
     14 C          63.0200   93.3937   -1.4710 C.ar    1  UNL1        0.1535
     15 C          61.5360   93.5388   -1.3068 C.ar    1  UNL1        0.0850
     16 C          60.8976   93.2600    0.0216 C.ar    1  UNL1        0.0220
     17 C          61.7432   92.8362    1.1859 C.ar    1  UNL1        0.0505
     18 N          60.6905   93.9625   -2.4711 N.am    1  UNL1       -0.2802
     19 C          60.5774   95.4154   -2.8262 C.2     1  UNL1        0.2443
     20 O          61.3097   96.4446   -2.0171 O.2     1  UNL1       -0.2730
     21 H          60.2099   93.2871   -3.0021 H       1  UNL1        0.1550
     22 C          59.7318   95.8393   -3.9905 C.3     1  UNL1        0.1521
     23 C          60.1837   96.6776   -5.1494 C.3     1  UNL1        0.0310
     24 C          59.0171   96.8556   -6.0754 C.3     1  UNL1        0.0237
     25 C          57.8443   96.1273   -5.4888 C.3     1  UNL1        0.0939
     26 N          58.2860   95.4992   -4.2003 N.am    1  UNL1       -0.2717
     27 C          57.4319   94.6757   -3.2826 C.2     1  UNL1        0.2438
     28 O          58.0150   94.1097   -2.0218 O.2     1  UNL1       -0.2731
     29 C          55.9946   94.4180   -3.6256 C.3     1  UNL1        0.1487
     30 C          54.9077   94.8906   -2.7062 C.3     1  UNL1        0.0250
     31 C          55.0139   93.6146   -1.9248 C.3     1  UNL1        0.0021
     32 C          54.8014   96.1665   -3.4876 C.3     1  UNL1        0.0021
     33 C          53.8208   95.3631   -1.7868 C.3     1  UNL1        0.0021
     34 N          55.6442   93.6878   -4.8882 N.am    1  UNL1       -0.2973
     35 C          56.1432   92.2907   -5.1097 C.2     1  UNL1        0.2370
     36 O          56.9928   91.6239   -4.0687 O.2     1  UNL1       -0.2737
     37 H          55.0866   94.1255   -5.5714 H       1  UNL1        0.1499
     38 C          55.7929   91.5604   -6.3722 C.3     1  UNL1        0.1316
     39 C          56.7059   91.6352   -7.5600 C.3     1  UNL1        0.0270
     40 N          54.5294   90.7554   -6.4469 N.3     1  UNL1       -0.2902
     41 C          54.2388   89.7174   -5.4038 C.3     1  UNL1        0.0862
     42 H          54.5396   90.2743   -7.3463 H       1  UNL1        0.1237
     43 O          63.6584   93.6724   -2.7994 O.3     1  UNL1       -0.4701
     44 C          63.7400   92.5897   -3.8342 C.3     1  UNL1        0.2525
     45 C          60.5546   90.1140    9.2586 C.3     1  UNL1        0.0017
     46 C          61.9857   90.0788    9.7065 C.3     1  UNL1        0.0212
     47 C          62.6233   91.3104   10.2781 C.3     1  UNL1        0.0882
     48 N          63.9286   91.8036    9.7276 N.pl3   1  UNL1       -0.3180
     49 H          64.2753   91.4387    8.8815 H       1  UNL1        0.1482
     50 C          65.3567   91.0103   13.9206 C.ar    1  UNL1        0.0850
     51 C          64.8806   91.2748   12.5230 C.ar    1  UNL1        0.0220
     52 C          65.1816   92.5883   11.8640 C.ar    1  UNL1        0.0505
     53 C          64.7055   92.8527   10.4664 C.ar    1  UNL1        0.1317
     54 N          65.0065   94.1662    9.8075 N.ar    1  UNL1       -0.2092
     55 C          65.7834   95.2152   10.5462 C.ar    1  UNL1        0.2000
     56 N          66.2594   94.9508   11.9439 N.ar    1  UNL1       -0.2238
     57 C          65.9585   93.6374   12.6028 C.ar    1  UNL1        0.0888
     58 C          66.4346   93.3730   14.0005 C.ar    1  UNL1        0.0574
     59 C          66.1337   92.0595   14.6594 C.ar    1  UNL1        0.1535
     60 C          63.7728   89.5131   15.3346 C.2     1  UNL1        0.2443
     61 O          62.7907   90.6428   15.4308 O.2     1  UNL1       -0.2730
     62 N          65.0558   89.6969   14.5795 N.am    1  UNL1       -0.2802
     63 H          65.7003   88.9554   14.5164 H       1  UNL1        0.1550
     64 C          63.5910   86.6161   13.8432 C.2     1  UNL1        0.2438
     65 O          63.9093   87.7572   12.9230 O.2     1  UNL1       -0.2731
     66 N          63.3884   86.8680   15.3080 N.am    1  UNL1       -0.2717
     67 C          63.0666   85.8324   16.3444 C.3     1  UNL1        0.0939
     68 C          62.9513   86.5240   17.6705 C.3     1  UNL1        0.0237
     69 C          63.2018   87.9870   17.4536 C.3     1  UNL1        0.0310
     70 C          63.4719   88.1995   15.9936 C.3     1  UNL1        0.1521
     71 C          63.4754   85.2233   13.2987 C.3     1  UNL1        0.1487
     72 C          62.1787   85.7763   11.1164 C.2     1  UNL1        0.2370
     73 O          61.3323   86.7600   11.8686 O.2     1  UNL1       -0.2737
     74 N          63.2503   85.0079   11.8314 N.am    1  UNL1       -0.2973
     75 H          63.8059   84.3623   11.3377 H       1  UNL1        0.1499
     76 C          61.9536   85.5609    9.6491 C.3     1  UNL1        0.1316
     77 C          60.6791   86.0264    9.0095 C.3     1  UNL1        0.0270
     78 C          62.7689   84.6457    7.3583 C.3     1  UNL1        0.0862
     79 N          63.0029   84.8801    8.8213 N.3     1  UNL1       -0.2902
     80 H          63.8496   85.4438    8.8974 H       1  UNL1        0.1237
     81 C          63.5849   84.0458   14.2215 C.3     1  UNL1        0.0250
     82 C          65.0744   84.2174   14.2638 C.3     1  UNL1        0.0021
     83 C          62.0954   83.8742   14.1792 C.3     1  UNL1        0.0021
     84 C          63.6944   82.8683   15.1442 C.3     1  UNL1        0.0021
     85 O          66.6097   91.7951   16.0570 O.3     1  UNL1       -0.4701
     86 C          68.0127   92.1501   16.4513 C.3     1  UNL1        0.2525
@<TRIPOS>BOND
     1    78    79    1
     2    79    76    1
     3    76    77    1
     4    76    72    1
     5    72    73    2
     6    72    74   am
     7    71    74    1
     8    71    64    1
     9    64    65    2
    10    64    66   am
    11    66    67    1
    12    67    68    1
    13    68    69    1
    14    69    70    1
    15    70    60    1
    16    60    61    2
    17    60    62   am
    18    62    50    1
    19    50    51   ar
    20    51    52   ar
    21    52    53   ar
    22    53    48    1
    23    48    47    1
    24    47    46    1
    25    46    45    1
    26    45     1    1
    27     1     2    1
    28     2     3    1
    29     3     4    1
    30     4     5    1
    31     5     6    1
    32     6     8    1
    33     8     9   ar
    34     9    10   ar
    35    10    11   ar
    36    11    12   ar
    37    12    13   ar
    38    13    14   ar
    39    14    43    1
    40    43    44    1
    41    14    15   ar
    42    15    18    1
    43    18    19   am
    44    19    20    2
    45    22    19    1
    46    22    23    1
    47    23    24    1
    48    24    25    1
    49    25    26    1
    50    26    27   am
    51    27    28    2
    52    27    29    1
    53    29    34    1
    54    34    35   am
    55    35    36    2
    56    35    38    1
    57    38    39    1
    58    38    40    1
    59    40    41    1
    60    29    30    1
    61    30    31    1
    62    30    32    1
    63    30    33    1
    64    15    16   ar
    65    16    17   ar
    66    53    54   ar
    67    54    55   ar
    68    55    56   ar
    69    56    57   ar
    70    57    58   ar
    71    58    59   ar
    72    59    85    1
    73    85    86    1
    74    71    81    1
    75    81    82    1
    76    81    83    1
    77    81    84    1
    78    70    66    1
    79    59    50   ar
    80    57    52   ar
    81    17     8   ar
    82    17    12   ar
    83    26    22    1
    84    79    80    1
    85    74    75    1
    86    62    63    1
    87    48    49    1
    88     6     7    1
    89    18    21    1
    90    34    37    1
    91    40    42    1
@<TRIPOS>MOLECULE
*****
 86 91 0 0 0
SMALL
GASTEIGER

@<TRIPOS>ATOM
      1 C          60.3134   89.8812    7.1483 C.3     1  UNL1        0.0001
      2 C          59.4549   90.8376    6.3749 C.3     1  UNL1        0.0001
      3 C          59.7011   91.0509    4.9107 C.3     1  UNL1        0.0017
      4 C          59.4623   92.3994    4.2987 C.3     1  UNL1        0.0212
      5 C          59.2369   92.5230    2.8209 C.3     1  UNL1        0.0882
      6 N          60.2241   91.9305    1.8595 N.pl3   1  UNL1       -0.3180
      7 H          59.9361   91.2364    1.2235 H       1  UNL1        0.1482
      8 C          61.6502   92.3955    1.8671 C.ar    1  UNL1        0.1317
      9 N          62.4874   92.2274    3.1003 N.ar    1  UNL1       -0.2092
     10 C          63.9134   92.6925    3.1078 C.ar    1  UNL1        0.2000
     11 N          64.5023   93.3256    1.8821 N.ar    1  UNL1       -0.2238
     12 C          63.6652   93.4937    0.6489 C.ar    1  UNL1        0.0888
     13 C          64.2541   94.1268   -0.5768 C.ar    1  UNL1        0.0574
     14 C          63.4170   94.2949   -1.8100 C.ar    1  UNL1        0.1535
     15 C          61.9909   93.8299   -1.8176 C.ar    1  UNL1        0.0850
     16 C          61.4019   93.1967   -0.5919 C.ar    1  UNL1        0.0220
     17 C          62.2391   93.0287    0.6414 C.ar    1  UNL1        0.0505
     18 N          61.1537   93.9979   -3.0508 N.am    1  UNL1       -0.2802
     19 C          60.7237   95.3680   -3.4843 C.2     1  UNL1        0.2443
     20 O          61.1308   96.5700   -2.6846 O.2     1  UNL1       -0.2730
     21 H          60.8865   93.2091   -3.5757 H       1  UNL1        0.1550
     22 C          59.8865   95.5362   -4.7176 C.3     1  UNL1        0.1521
     23 C          60.2983   96.2470   -5.9727 C.3     1  UNL1        0.0310
     24 C          59.1569   96.1731   -6.9430 C.3     1  UNL1        0.0237
     25 C          58.0396   95.4166   -6.2878 C.3     1  UNL1        0.0939
     26 N          58.4905   95.0229   -4.9124 N.am    1  UNL1       -0.2717
     27 C          57.6867   94.2515   -3.9081 C.2     1  UNL1        0.2438
     28 O          58.2732   93.9297   -2.5655 O.2     1  UNL1       -0.2731
     29 C          56.2962   93.8018   -4.2462 C.3     1  UNL1        0.1487
     30 C          56.0733   92.8357   -5.3719 C.3     1  UNL1        0.0250
     31 C          56.8108   91.7760   -4.6084 C.3     1  UNL1        0.0021
     32 C          55.3358   93.8955   -6.1353 C.3     1  UNL1        0.0021
     33 C          55.8503   91.8697   -6.4975 C.3     1  UNL1        0.0021
     34 N          55.1287   94.3182   -3.4587 N.am    1  UNL1       -0.2973
     35 C          54.8497   95.7912   -3.4097 C.2     1  UNL1        0.2370
     36 O          55.7382   96.7478   -4.1482 O.2     1  UNL1       -0.2737
     37 H          54.5455   93.6903   -2.9740 H       1  UNL1        0.1499
     38 C          53.6821   96.3077   -2.6222 C.3     1  UNL1        0.1316
     39 C          53.7318   96.3124   -1.1230 C.3     1  UNL1        0.0270
     40 N          52.4649   96.8193   -3.3339 N.3     1  UNL1       -0.2902
     41 C          51.1421   96.8538   -2.6275 C.3     1  UNL1        0.0862
     42 H          52.3414   96.2368   -4.1620 H       1  UNL1        0.1237
     43 O          64.0059   94.9280   -3.0357 O.3     1  UNL1       -0.4701
     44 C          64.5602   94.0672   -4.1319 C.3     1  UNL1        0.2525
     45 C          60.3748   89.9698    8.6444 C.3     1  UNL1        0.0017
     46 C          61.6948   89.8622    9.3486 C.3     1  UNL1        0.0212
     47 C          62.4125   91.1030    9.7905 C.3     1  UNL1        0.0882
     48 N          63.9066   91.0979    9.9241 N.pl3   1  UNL1       -0.3180
     49 H          64.4267   90.3253    9.6050 H       1  UNL1        0.1482
     50 C          65.2211   90.9168   14.2240 C.ar    1  UNL1        0.0850
     51 C          64.7830   90.9772   12.7907 C.ar    1  UNL1        0.0220
     52 C          65.0463   92.2096   11.9772 C.ar    1  UNL1        0.0505
     53 C          64.6081   92.2700   10.5439 C.ar    1  UNL1        0.1317
     54 N          64.8714   93.5024    9.7304 N.ar    1  UNL1       -0.2092
     55 C          65.5729   94.6744   10.3502 C.ar    1  UNL1        0.2000
     56 N          66.0111   94.6141   11.7835 N.ar    1  UNL1       -0.2238
     57 C          65.7478   93.3817   12.5970 C.ar    1  UNL1        0.0888
     58 C          66.1860   93.3213   14.0303 C.ar    1  UNL1        0.0574
     59 C          65.9227   92.0889   14.8438 C.ar    1  UNL1        0.1535
     60 C          63.5481   89.2832   15.3562 C.2     1  UNL1        0.2443
     61 O          62.4017   90.1143   14.8616 O.2     1  UNL1       -0.2730
     62 N          64.9578   89.6844   15.0374 N.am    1  UNL1       -0.2802
     63 H          65.7103   89.1388   15.3621 H       1  UNL1        0.1550
     64 C          63.5823   86.2125   14.2520 C.2     1  UNL1        0.2438
     65 O          63.8836   87.2414   13.2030 O.2     1  UNL1       -0.2731
     66 N          63.3006   86.6393   15.6621 N.am    1  UNL1       -0.2717
     67 C          62.9850   85.7295   16.8124 C.3     1  UNL1        0.0939
     68 C          62.7743   86.5787   18.0308 C.3     1  UNL1        0.0237
     69 C          62.9596   88.0133   17.6336 C.3     1  UNL1        0.0310
     70 C          63.2848   88.0507   16.1698 C.3     1  UNL1        0.1521
     71 C          63.5627   84.7567   13.8910 C.3     1  UNL1        0.1487
     72 C          63.8601   83.4722   11.6524 C.2     1  UNL1        0.2370
     73 O          65.2395   83.0591   12.0727 O.2     1  UNL1       -0.2737
     74 N          63.0217   84.3209   12.5615 N.am    1  UNL1       -0.2973
     75 H          62.1163   84.5920   12.2857 H       1  UNL1        0.1499
     76 C          63.3192   83.0363   10.3229 C.3     1  UNL1        0.1316
     77 C          63.5050   83.9069    9.1156 C.3     1  UNL1        0.0270
     78 C          63.2936   80.4472   10.5371 C.3     1  UNL1        0.0862
     79 N          62.5924   81.7299   10.2008 N.3     1  UNL1       -0.2902
     80 H          61.7770   81.7884   10.8109 H       1  UNL1        0.1237
     81 C          64.0842   83.7367   14.8593 C.3     1  UNL1        0.0250
     82 C          65.4408   84.3738   14.7998 C.3     1  UNL1        0.0021
     83 C          62.7275   83.0997   14.9188 C.3     1  UNL1        0.0021
     84 C          64.6056   82.7168   15.8277 C.3     1  UNL1        0.0021
     85 O          66.3609   92.0285   16.2771 O.3     1  UNL1       -0.4701
     86 C          65.3855   92.3395   17.3733 C.3     1  UNL1        0.2525
@<TRIPOS>BOND
     1    78    79    1
     2    79    76    1
     3    76    77    1
     4    76    72    1
     5    72    73    2
     6    72    74   am
     7    71    74    1
     8    71    64    1
     9    64    65    2
    10    64    66   am
    11    66    67    1
    12    67    68    1
    13    68    69    1
    14    69    70    1
    15    70    60    1
    16    60    61    2
    17    60    62   am
    18    62    50    1
    19    50    51   ar
    20    51    52   ar
    21    52    53   ar
    22    53    48    1
    23    48    47    1
    24    47    46    1
    25    46    45    1
    26    45     1    1
    27     1     2    1
    28     2     3    1
    29     3     4    1
    30     4     5    1
    31     5     6    1
    32     6     8    1
    33     8     9   ar
    34     9    10   ar
    35    10    11   ar
    36    11    12   ar
    37    12    13   ar
    38    13    14   ar
    39    14    43    1
    40    43    44    1
    41    14    15   ar
    42    15    18    1
    43    18    19   am
    44    19    20    2
    45    22    19    1
    46    22    23    1
    47    23    24    1
    48    24    25    1
    49    25    26    1
    50    26    27   am
    51    27    28    2
    52    27    29    1
    53    29    34    1
    54    34    35   am
    55    35    36    2
    56    35    38    1
    57    38    39    1
    58    38    40    1
    59    40    41    1
    60    29    30    1
    61    30    31    1
    62    30    32    1
    63    30    33    1
    64    15    16   ar
    65    16    17   ar
    66    53    54   ar
    67    54    55   ar
    68    55    56   ar
    69    56    57   ar
    70    57    58   ar
    71    58    59   ar
    72    59    85    1
    73    85    86    1
    74    71    81    1
    75    81    82    1
    76    81    83    1
    77    81    84    1
    78    70    66    1
    79    59    50   ar
    80    57    52   ar
    81    17     8   ar
    82    17    12   ar
    83    26    22    1
    84    79    80    1
    85    74    75    1
    86    62    63    1
    87    48    49    1
    88     6     7    1
    89    18    21    1
    90    34    37    1
    91    40    42    1
@<TRIPOS>MOLECULE
*****
 86 91 0 0 0
SMALL
GASTEIGER

@<TRIPOS>ATOM
      1 C          62.0634   86.8669    9.4656 C.3     1  UNL1        0.0001
      2 C          62.1637   85.8913    8.3306 C.3     1  UNL1        0.0001
      3 C          62.6296   84.4886    8.5863 C.3     1  UNL1        0.0017
      4 C          63.9360   84.2476    9.2829 C.3     1  UNL1        0.0212
      5 C          63.9947   83.3353   10.4722 C.3     1  UNL1        0.0882
      6 N          62.7346   82.9664   11.1973 N.pl3   1  UNL1       -0.3180
      7 H          61.9301   82.7138   10.6891 H       1  UNL1        0.1482
      8 C          62.7001   82.9823   12.6969 C.ar    1  UNL1        0.1317
      9 N          62.3536   81.7336   13.4524 N.ar    1  UNL1       -0.2092
     10 C          62.3191   81.7496   14.9519 C.ar    1  UNL1        0.2000
     11 N          62.6313   83.0141   15.6959 N.ar    1  UNL1       -0.2238
     12 C          62.9779   84.2627   14.9404 C.ar    1  UNL1        0.0888
     13 C          63.2900   85.5272   15.6844 C.ar    1  UNL1        0.0574
     14 C          63.6366   86.7758   14.9289 C.ar    1  UNL1        0.1535
     15 C          63.6710   86.7600   13.4293 C.ar    1  UNL1        0.0850
     16 C          63.3589   85.4954   12.6853 C.ar    1  UNL1        0.0220
     17 C          63.0123   84.2468   13.4409 C.ar    1  UNL1        0.0505
     18 N          64.0176   88.0086   12.6739 N.am    1  UNL1       -0.2802
     19 C          62.9437   88.9953   12.3230 C.2     1  UNL1        0.2443
     20 O          61.5232   88.7333   12.7276 O.2     1  UNL1       -0.2730
     21 H          64.9498   88.1805   12.4083 H       1  UNL1        0.1550
     22 C          63.2902   90.2440   11.5674 C.3     1  UNL1        0.1521
     23 C          62.7395   90.6479   10.2320 C.3     1  UNL1        0.0310
     24 C          63.3572   91.9615    9.8540 C.3     1  UNL1        0.0237
     25 C          64.2898   92.3694   10.9559 C.3     1  UNL1        0.0939
     26 N          64.2483   91.3079   12.0148 N.am    1  UNL1       -0.2717
     27 C          65.0281   91.3099   13.2962 C.2     1  UNL1        0.2438
     28 O          64.8830   90.1734   14.2643 O.2     1  UNL1       -0.2731
     29 C          65.9529   92.4485   13.6096 C.3     1  UNL1        0.1487
     30 C          67.0505   92.2681   14.6159 C.3     1  UNL1        0.0250
     31 C          67.9083   91.6272   13.5654 C.3     1  UNL1        0.0021
     32 C          66.1928   92.9089   15.6664 C.3     1  UNL1        0.0021
     33 C          68.1482   92.0877   15.6222 C.3     1  UNL1        0.0021
     34 N          65.7801   93.7676   12.9166 N.am    1  UNL1       -0.2973
     35 C          66.5523   94.0642   11.6653 C.2     1  UNL1        0.2370
     36 O          67.4972   93.0418   11.1070 O.2     1  UNL1       -0.2737
     37 H          65.1599   94.4386   13.2830 H       1  UNL1        0.1499
     38 C          66.3795   95.3833   10.9722 C.3     1  UNL1        0.1316
     39 C          66.2027   96.6362   11.7777 C.3     1  UNL1        0.0270
     40 N          66.3837   95.4493    9.4737 N.3     1  UNL1       -0.2902
     41 C          66.7284   96.7341    8.7805 C.3     1  UNL1        0.0862
     42 H          65.4466   95.1903    9.1650 H       1  UNL1        0.1237
     43 O          63.9487   88.0404   15.6729 O.3     1  UNL1       -0.4701
     44 C          62.9184   88.6544   16.5736 C.3     1  UNL1        0.2525
     45 C          60.7252   87.4093    9.8724 C.3     1  UNL1        0.0017
     46 C          59.9576   88.2931    8.9345 C.3     1  UNL1        0.0212
     47 C          60.3886   88.4219    7.5036 C.3     1  UNL1        0.0882
     48 N          60.2839   89.7451    6.8049 N.pl3   1  UNL1       -0.3180
     49 H          61.0685   90.3375    6.7524 H       1  UNL1        0.1482
     50 C          60.2726   92.4961    3.2438 C.ar    1  UNL1        0.0850
     51 C          60.2763   91.5791    4.4308 C.ar    1  UNL1        0.0220
     52 C          58.9799   91.0828    4.9993 C.ar    1  UNL1        0.0505
     53 C          58.9837   90.1658    6.1863 C.ar    1  UNL1        0.1317
     54 N          57.6874   89.6695    6.7548 N.ar    1  UNL1       -0.2092
     55 C          56.3873   90.0902    6.1362 C.ar    1  UNL1        0.2000
     56 N          56.3835   91.0072    4.9491 N.ar    1  UNL1       -0.2238
     57 C          57.6798   91.5035    4.3807 C.ar    1  UNL1        0.0888
     58 C          57.6761   92.4205    3.1936 C.ar    1  UNL1        0.0574
     59 C          58.9724   92.9168    2.6252 C.ar    1  UNL1        0.1535
     60 C          62.0164   92.5359    1.3184 C.2     1  UNL1        0.2443
     61 O          61.1677   91.5832    0.5299 O.2     1  UNL1       -0.2730
     62 N          61.5689   92.9924    2.6753 N.am    1  UNL1       -0.2802
     63 H          62.1260   93.6177    3.1928 H       1  UNL1        0.1550
     64 C          62.4338   93.8606   -1.6347 C.2     1  UNL1        0.2438
     65 O          61.0193   93.4566   -1.3417 O.2     1  UNL1       -0.2731
     66 N          63.5046   93.6412   -0.6075 N.am    1  UNL1       -0.2717
     67 C          64.9554   93.9921   -0.7573 C.3     1  UNL1        0.0939
     68 C          65.6601   93.6001    0.5076 C.3     1  UNL1        0.0237
     69 C          64.6449   93.0069    1.4390 C.3     1  UNL1        0.0310
     70 C          63.3129   93.0323    0.7499 C.3     1  UNL1        0.1521
     71 C          62.7776   94.4841   -2.9550 C.3     1  UNL1        0.1487
     72 C          60.5918   95.2264   -4.1471 C.2     1  UNL1        0.2370
     73 O          60.1402   93.7973   -4.2090 O.2     1  UNL1       -0.2737
     74 N          61.9105   95.5698   -3.5202 N.am    1  UNL1       -0.2973
     75 H          62.2069   96.5077   -3.4796 H       1  UNL1        0.1499
     76 C          59.7247   96.3121   -4.7123 C.3     1  UNL1        0.1316
     77 C          60.0002   96.8547   -6.0833 C.3     1  UNL1        0.0270
     78 C          58.4950   96.5638   -2.4376 C.3     1  UNL1        0.0862
     79 N          58.5821   96.8551   -3.9065 N.3     1  UNL1       -0.2902
     80 H          58.6089   97.8700   -4.0043 H       1  UNL1        0.1237
     81 C          63.9884   94.0218   -3.7101 C.3     1  UNL1        0.0250
     82 C          63.3809   92.6574   -3.8490 C.3     1  UNL1        0.0021
     83 C          64.5959   95.3862   -3.5712 C.3     1  UNL1        0.0021
     84 C          65.1992   93.5595   -4.4652 C.3     1  UNL1        0.0021
     85 O          58.9686   93.8338    1.4381 O.3     1  UNL1       -0.4701
     86 C          59.6972   95.1435    1.4998 C.3     1  UNL1        0.2525
@<TRIPOS>BOND
     1    78    79    1
     2    79    76    1
     3    76    77    1
     4    76    72    1
     5    72    73    2
     6    72    74   am
     7    71    74    1
     8    71    64    1
     9    64    65    2
    10    64    66   am
    11    66    67    1
    12    67    68    1
    13    68    69    1
    14    69    70    1
    15    70    60    1
    16    60    61    2
    17    60    62   am
    18    62    50    1
    19    50    51   ar
    20    51    52   ar
    21    52    53   ar
    22    53    48    1
    23    48    47    1
    24    47    46    1
    25    46    45    1
    26    45     1    1
    27     1     2    1
    28     2     3    1
    29     3     4    1
    30     4     5    1
    31     5     6    1
    32     6     8    1
    33     8     9   ar
    34     9    10   ar
    35    10    11   ar
    36    11    12   ar
    37    12    13   ar
    38    13    14   ar
    39    14    43    1
    40    43    44    1
    41    14    15   ar
    42    15    18    1
    43    18    19   am
    44    19    20    2
    45    22    19    1
    46    22    23    1
    47    23    24    1
    48    24    25    1
    49    25    26    1
    50    26    27   am
    51    27    28    2
    52    27    29    1
    53    29    34    1
    54    34    35   am
    55    35    36    2
    56    35    38    1
    57    38    39    1
    58    38    40    1
    59    40    41    1
    60    29    30    1
    61    30    31    1
    62    30    32    1
    63    30    33    1
    64    15    16   ar
    65    16    17   ar
    66    53    54   ar
    67    54    55   ar
    68    55    56   ar
    69    56    57   ar
    70    57    58   ar
    71    58    59   ar
    72    59    85    1
    73    85    86    1
    74    71    81    1
    75    81    82    1
    76    81    83    1
    77    81    84    1
    78    70    66    1
    79    59    50   ar
    80    57    52   ar
    81    17     8   ar
    82    17    12   ar
    83    26    22    1
    84    79    80    1
    85    74    75    1
    86    62    63    1
    87    48    49    1
    88     6     7    1
    89    18    21    1
    90    34    37    1
    91    40    42    1
