@<TRIPOS>MOLECULE
*****
 34 38 0 0 0
SMALL
GASTEIGER

@<TRIPOS>ATOM
      1 C          62.6487   88.4941   11.5699 C.2     1  UNL1        0.2506
      2 O          62.6176   89.9937   11.5744 O.2     1  UNL1       -0.2699
      3 N          63.3097   87.7543   12.6949 N.am    1  UNL1       -0.2723
      4 C          63.3408   86.2546   12.6905 C.3     1  UNL1        0.1257
      5 C          64.0019   85.5148   13.8156 C.3     1  UNL1        0.1637
      6 O          64.6317   86.2747   14.9451 O.3     1  UNL1       -0.3502
      7 C          64.6006   87.7743   14.9495 C.3     1  UNL1        0.1622
      8 C          63.9396   88.5141   13.8245 C.3     1  UNL1        0.1096
      9 C          63.0037   84.9745    7.7637 C.3     1  UNL1        0.0310
     10 C          62.1963   85.9745    8.5372 C.ar    1  UNL1       -0.0216
     11 C          60.7591   86.2145    8.1812 C.ar    1  UNL1       -0.0026
     12 C          59.9518   87.2144    8.9548 C.ar    1  UNL1        0.0207
     13 C          60.5816   87.9743   10.0843 C.ar    1  UNL1        0.1072
     14 C          62.0188   87.7342   10.4403 C.ar    1  UNL1        0.0726
     15 C          62.8262   86.7343    9.6668 C.ar    1  UNL1        0.0018
     16 N          59.7743   88.9742   10.8578 N.ar    1  UNL1       -0.1477
     17 N          59.5708   90.4148   10.4930 N.ar    1  UNL1       -0.1447
     18 C          58.6994   91.0400   11.5417 C.ar    1  UNL1        0.1446
     19 C          58.3643   89.9858   12.5547 C.ar    1  UNL1        0.1446
     20 N          59.0286   88.7090   12.1321 N.ar    1  UNL1       -0.1447
     21 C          63.9085   90.0138   13.8290 C.3     1  UNL1        0.0487
     22 C          65.1905   90.7907   13.7756 C.ar    1  UNL1       -0.0203
     23 C          66.1293   90.7699   14.9453 C.ar    1  UNL1       -0.0042
     24 C          67.4113   91.5468   14.8920 C.ar    1  UNL1       -0.0002
     25 C          67.7545   92.3446   13.6689 C.ar    1  UNL1        0.0030
     26 C          66.8156   92.3654   12.4992 C.ar    1  UNL1        0.0355
     27 C          65.5336   91.5885   12.5526 C.ar    1  UNL1       -0.0012
     28 C          67.1588   93.1632   11.2762 C.ar    1  UNL1        0.1619
     29 N          67.8879   92.5139   10.1374 N.ar    1  UNL1       -0.2251
     30 C          68.2311   93.3116    8.9143 C.ar    1  UNL1        0.1018
     31 C          67.8451   94.7587    8.8301 C.ar    1  UNL1        0.0354
     32 C          67.1161   95.4080    9.9689 C.ar    1  UNL1        0.0626
     33 C          66.7302   96.8550    9.8847 C.3     1  UNL1        0.0522
     34 N          66.7729   94.6102   11.1920 N.ar    1  UNL1       -0.2309
@<TRIPOS>BOND
     1     9    10    1
     2    10    11   ar
     3    11    12   ar
     4    12    13   ar
     5    13    16    1
     6    16    17   ar
     7    17    18   ar
     8    18    19   ar
     9    19    20   ar
    10    13    14   ar
    11    14     1    1
    12     1     2    2
    13     1     3   am
    14     3     4    1
    15     4     5    1
    16     5     6    1
    17     6     7    1
    18     7     8    1
    19     8    21    1
    20    21    22    1
    21    22    23   ar
    22    23    24   ar
    23    24    25   ar
    24    25    26   ar
    25    26    28    1
    26    28    29   ar
    27    29    30   ar
    28    30    31   ar
    29    31    32   ar
    30    32    33    1
    31    32    34   ar
    32    26    27   ar
    33    14    15   ar
    34    15    10   ar
    35    20    16   ar
    36     8     3    1
    37    27    22   ar
    38    34    28   ar
@<TRIPOS>MOLECULE
*****
 34 38 0 0 0
SMALL
GASTEIGER

@<TRIPOS>ATOM
      1 C          62.7745   86.3238   12.2567 C.2     1  UNL1        0.2506
      2 O          63.2059   87.2695   13.3381 O.2     1  UNL1       -0.2699
      3 N          61.8912   86.8081   11.1453 N.am    1  UNL1       -0.2723
      4 C          61.4597   85.8624   10.0639 C.3     1  UNL1        0.1257
      5 C          60.5764   86.3468    8.9524 C.3     1  UNL1        0.1637
      6 O          60.1246   87.7768    8.9225 O.3     1  UNL1       -0.3502
      7 C          60.5561   88.7225   10.0039 C.3     1  UNL1        0.1622
      8 C          61.4393   88.2382   11.1153 C.3     1  UNL1        0.1096
      9 C          64.2275   82.0102    9.7504 C.3     1  UNL1        0.0310
     10 C          63.9528   82.7370   11.0335 C.ar    1  UNL1       -0.0216
     11 C          64.1300   82.0338   12.3465 C.ar    1  UNL1       -0.0026
     12 C          63.8554   82.7606   13.6296 C.ar    1  UNL1        0.0207
     13 C          63.4036   84.1906   13.5997 C.ar    1  UNL1        0.1072
     14 C          63.2264   84.8938   12.2867 C.ar    1  UNL1        0.0726
     15 C          63.5010   84.1670   11.0036 C.ar    1  UNL1        0.0018
     16 N          63.1289   84.9174   14.8828 N.ar    1  UNL1       -0.1477
     17 N          64.1234   85.7119   15.6764 N.ar    1  UNL1       -0.1447
     18 C          63.4207   86.2629   16.8816 C.ar    1  UNL1        0.1446
     19 C          61.9919   85.8088   16.8330 C.ar    1  UNL1        0.1446
     20 N          61.8116   84.9773   15.5977 N.ar    1  UNL1       -0.1447
     21 C          61.8708   89.1839   12.1968 C.3     1  UNL1        0.0487
     22 C          62.9365   90.2028   11.9209 C.ar    1  UNL1       -0.0203
     23 C          63.0393   90.8316   10.5630 C.ar    1  UNL1       -0.0042
     24 C          64.1050   91.8506   10.2871 C.ar    1  UNL1       -0.0002
     25 C          65.0679   92.2406   11.3691 C.ar    1  UNL1        0.0030
     26 C          64.9650   91.6117   12.7270 C.ar    1  UNL1        0.0355
     27 C          63.8993   90.5928   13.0029 C.ar    1  UNL1       -0.0012
     28 C          65.9279   92.0017   13.8091 C.ar    1  UNL1        0.1619
     29 N          65.4175   92.3645   15.1722 N.ar    1  UNL1       -0.2251
     30 C          66.3804   92.7545   16.2542 C.ar    1  UNL1        0.1018
     31 C          67.8536   92.7818   15.9731 C.ar    1  UNL1        0.0354
     32 C          68.3639   92.4190   14.6100 C.ar    1  UNL1        0.0626
     33 C          69.8370   92.4463   14.3290 C.3     1  UNL1        0.0522
     34 N          67.4010   92.0290   13.5280 N.ar    1  UNL1       -0.2309
@<TRIPOS>BOND
     1     9    10    1
     2    10    11   ar
     3    11    12   ar
     4    12    13   ar
     5    13    16    1
     6    16    17   ar
     7    17    18   ar
     8    18    19   ar
     9    19    20   ar
    10    13    14   ar
    11    14     1    1
    12     1     2    2
    13     1     3   am
    14     3     4    1
    15     4     5    1
    16     5     6    1
    17     6     7    1
    18     7     8    1
    19     8    21    1
    20    21    22    1
    21    22    23   ar
    22    23    24   ar
    23    24    25   ar
    24    25    26   ar
    25    26    28    1
    26    28    29   ar
    27    29    30   ar
    28    30    31   ar
    29    31    32   ar
    30    32    33    1
    31    32    34   ar
    32    26    27   ar
    33    14    15   ar
    34    15    10   ar
    35    20    16   ar
    36     8     3    1
    37    27    22   ar
    38    34    28   ar
@<TRIPOS>MOLECULE
*****
 34 38 0 0 0
SMALL
GASTEIGER

@<TRIPOS>ATOM
      1 C          62.7824   87.2765   11.8660 C.2     1  UNL1        0.2506
      2 O          63.4456   87.3822   13.2073 O.2     1  UNL1       -0.2699
      3 N          61.9855   88.4288   11.3304 N.am    1  UNL1       -0.2723
      4 C          61.3223   88.3230    9.9891 C.3     1  UNL1        0.1257
      5 C          60.5253   89.4754    9.4535 C.3     1  UNL1        0.1637
      6 O          60.3915   90.7336   10.2592 O.3     1  UNL1       -0.3502
      7 C          61.0547   90.8394   11.6005 C.3     1  UNL1        0.1622
      8 C          61.8516   89.6870   12.1361 C.3     1  UNL1        0.1096
      9 C          62.8032   84.8591    7.2664 C.3     1  UNL1        0.0310
     10 C          62.9266   84.8096    8.7605 C.ar    1  UNL1       -0.0216
     11 C          63.1839   83.5020    9.4489 C.ar    1  UNL1       -0.0026
     12 C          63.3074   83.4525   10.9430 C.ar    1  UNL1        0.0207
     13 C          63.1735   84.7106   11.7487 C.ar    1  UNL1        0.1072
     14 C          62.9163   86.0182   11.0603 C.ar    1  UNL1        0.0726
     15 C          62.7928   86.0677    9.5662 C.ar    1  UNL1        0.0018
     16 N          63.2970   84.6612   13.2428 N.ar    1  UNL1       -0.1477
     17 N          64.5787   84.6097   14.0204 N.ar    1  UNL1       -0.1447
     18 C          64.2343   84.5712   15.4798 C.ar    1  UNL1        0.1446
     19 C          62.7397   84.5989   15.6042 C.ar    1  UNL1        0.1446
     20 N          62.1605   84.6545   14.2217 N.ar    1  UNL1       -0.1447
     21 C          62.5148   89.7928   13.4773 C.3     1  UNL1        0.0487
     22 C          63.7103   90.6811   13.6549 C.ar    1  UNL1       -0.0203
     23 C          64.3032   90.8769   15.0188 C.ar    1  UNL1       -0.0042
     24 C          65.4988   91.7652   15.1964 C.ar    1  UNL1       -0.0002
     25 C          66.1014   92.4578   14.0102 C.ar    1  UNL1        0.0030
     26 C          65.5084   92.2620   12.6463 C.ar    1  UNL1        0.0355
     27 C          64.3129   91.3737   12.4687 C.ar    1  UNL1       -0.0012
     28 C          66.1111   92.9546   11.4600 C.ar    1  UNL1        0.1619
     29 N          65.6411   94.3256   11.0734 N.ar    1  UNL1       -0.2251
     30 C          66.2437   95.0182    9.8871 C.ar    1  UNL1        0.1018
     31 C          67.3163   94.3397    9.0875 C.ar    1  UNL1        0.0354
     32 C          67.7862   92.9688    9.4742 C.ar    1  UNL1        0.0626
     33 C          68.8588   92.2904    8.6746 C.3     1  UNL1        0.0522
     34 N          67.1836   92.2762   10.6605 N.ar    1  UNL1       -0.2309
@<TRIPOS>BOND
     1     9    10    1
     2    10    11   ar
     3    11    12   ar
     4    12    13   ar
     5    13    16    1
     6    16    17   ar
     7    17    18   ar
     8    18    19   ar
     9    19    20   ar
    10    13    14   ar
    11    14     1    1
    12     1     2    2
    13     1     3   am
    14     3     4    1
    15     4     5    1
    16     5     6    1
    17     6     7    1
    18     7     8    1
    19     8    21    1
    20    21    22    1
    21    22    23   ar
    22    23    24   ar
    23    24    25   ar
    24    25    26   ar
    25    26    28    1
    26    28    29   ar
    27    29    30   ar
    28    30    31   ar
    29    31    32   ar
    30    32    33    1
    31    32    34   ar
    32    26    27   ar
    33    14    15   ar
    34    15    10   ar
    35    20    16   ar
    36     8     3    1
    37    27    22   ar
    38    34    28   ar
@<TRIPOS>MOLECULE
*****
 34 38 0 0 0
SMALL
GASTEIGER

@<TRIPOS>ATOM
      1 C          63.3580   86.9840   13.1117 C.2     1  UNL1        0.2506
      2 O          63.8316   87.6367   14.3764 O.2     1  UNL1       -0.2699
      3 N          62.8134   87.8223   11.9934 N.am    1  UNL1       -0.2723
      4 C          62.3398   87.1695   10.7287 C.3     1  UNL1        0.1257
      5 C          61.7952   88.0079    9.6103 C.3     1  UNL1        0.1637
      6 O          61.7243   89.4990    9.7568 O.3     1  UNL1       -0.3502
      7 C          62.1979   90.1518   11.0215 C.3     1  UNL1        0.1622
      8 C          62.7424   89.3135   12.1398 C.3     1  UNL1        0.1096
      9 C          64.0163   82.7817   10.1272 C.3     1  UNL1        0.0310
     10 C          63.7581   83.3917   11.4730 C.ar    1  UNL1       -0.0216
     11 C          63.5709   82.5105   12.6724 C.ar    1  UNL1       -0.0026
     12 C          63.3127   83.1205   14.0182 C.ar    1  UNL1        0.0207
     13 C          63.2417   84.6116   14.1646 C.ar    1  UNL1        0.1072
     14 C          63.4289   85.4928   12.9653 C.ar    1  UNL1        0.0726
     15 C          63.6871   84.8828   11.6194 C.ar    1  UNL1        0.0018
     16 N          62.9836   85.2216   15.5105 N.ar    1  UNL1       -0.1477
     17 N          61.6366   85.4755   16.1197 N.ar    1  UNL1       -0.1447
     18 C          61.8476   86.0956   17.4691 C.ar    1  UNL1        0.1446
     19 C          63.3250   86.2250   17.6939 C.ar    1  UNL1        0.1446
     20 N          64.0270   85.6849   16.4834 N.ar    1  UNL1       -0.1447
     21 C          63.2160   89.9663   13.4046 C.3     1  UNL1        0.0487
     22 C          64.5005   90.7409   13.4133 C.ar    1  UNL1       -0.0203
     23 C          65.4594   90.5902   14.5568 C.ar    1  UNL1       -0.0042
     24 C          66.7439   91.3648   14.5656 C.ar    1  UNL1       -0.0002
     25 C          67.0694   92.2902   13.4308 C.ar    1  UNL1        0.0030
     26 C          66.1104   92.4409   12.2872 C.ar    1  UNL1        0.0355
     27 C          64.8260   91.6662   12.2785 C.ar    1  UNL1       -0.0012
     28 C          66.4360   93.3662   11.1524 C.ar    1  UNL1        0.1619
     29 N          67.5337   93.0173   10.1915 N.ar    1  UNL1       -0.2251
     30 C          67.8592   93.9426    9.0567 C.ar    1  UNL1        0.1018
     31 C          67.0870   95.2168    8.8828 C.ar    1  UNL1        0.0354
     32 C          65.9893   95.5657    9.8437 C.ar    1  UNL1        0.0626
     33 C          65.2172   96.8398    9.6698 C.3     1  UNL1        0.0522
     34 N          65.6638   94.6403   10.9785 N.ar    1  UNL1       -0.2309
@<TRIPOS>BOND
     1     9    10    1
     2    10    11   ar
     3    11    12   ar
     4    12    13   ar
     5    13    16    1
     6    16    17   ar
     7    17    18   ar
     8    18    19   ar
     9    19    20   ar
    10    13    14   ar
    11    14     1    1
    12     1     2    2
    13     1     3   am
    14     3     4    1
    15     4     5    1
    16     5     6    1
    17     6     7    1
    18     7     8    1
    19     8    21    1
    20    21    22    1
    21    22    23   ar
    22    23    24   ar
    23    24    25   ar
    24    25    26   ar
    25    26    28    1
    26    28    29   ar
    27    29    30   ar
    28    30    31   ar
    29    31    32   ar
    30    32    33    1
    31    32    34   ar
    32    26    27   ar
    33    14    15   ar
    34    15    10   ar
    35    20    16   ar
    36     8     3    1
    37    27    22   ar
    38    34    28   ar
@<TRIPOS>MOLECULE
*****
 34 38 0 0 0
SMALL
GASTEIGER

@<TRIPOS>ATOM
      1 C          63.3992   87.8013   13.2577 C.2     1  UNL1        0.2506
      2 O          63.6098   88.9198   12.2805 O.2     1  UNL1       -0.2699
      3 N          63.3346   88.0920   14.7278 N.am    1  UNL1       -0.2723
      4 C          63.1241   86.9736   15.7049 C.3     1  UNL1        0.1257
      5 C          63.0595   87.2643   17.1751 C.3     1  UNL1        0.1637
      6 O          63.2055   88.6734   17.6681 O.3     1  UNL1       -0.3502
      7 C          63.4160   89.7918   16.6910 C.3     1  UNL1        0.1622
      8 C          63.4806   89.5012   15.2208 C.3     1  UNL1        0.1096
      9 C          64.5940   82.7579   13.6276 C.3     1  UNL1        0.0310
     10 C          63.8507   83.8705   12.9496 C.ar    1  UNL1       -0.0216
     11 C          62.9615   83.5740   11.7786 C.ar    1  UNL1       -0.0026
     12 C          62.2182   84.6865   11.1005 C.ar    1  UNL1        0.0207
     13 C          62.3641   86.0956   11.5935 C.ar    1  UNL1        0.1072
     14 C          63.2533   86.3922   12.7646 C.ar    1  UNL1        0.0726
     15 C          63.9966   85.2796   13.4426 C.ar    1  UNL1        0.0018
     16 N          61.6208   87.2082   10.9155 N.ar    1  UNL1       -0.1477
     17 N          61.9408   87.7914    9.5711 N.ar    1  UNL1       -0.1447
     18 C          60.9448   88.8765    9.2875 C.ar    1  UNL1        0.1446
     19 C          60.0093   88.9641   10.4567 C.ar    1  UNL1        0.1446
     20 N          60.4271   87.9330   11.4629 N.ar    1  UNL1       -0.1447
     21 C          63.6911   90.6196   14.2437 C.3     1  UNL1        0.0487
     22 C          65.0609   91.1997   14.0515 C.ar    1  UNL1       -0.0203
     23 C          66.0957   91.0519   15.1274 C.ar    1  UNL1       -0.0042
     24 C          67.4656   91.6321   14.9352 C.ar    1  UNL1       -0.0002
     25 C          67.8007   92.3599   13.6672 C.ar    1  UNL1        0.0030
     26 C          66.7659   92.5077   12.5913 C.ar    1  UNL1        0.0355
     27 C          65.3961   91.9276   12.7835 C.ar    1  UNL1       -0.0012
     28 C          67.1010   93.2355   11.3232 C.ar    1  UNL1        0.1619
     29 N          67.8049   92.5176   10.2100 N.ar    1  UNL1       -0.2251
     30 C          68.1400   93.2454    8.9420 C.ar    1  UNL1        0.1018
     31 C          67.7713   94.6912    8.7872 C.ar    1  UNL1        0.0354
     32 C          67.0674   95.4090    9.9004 C.ar    1  UNL1        0.0626
     33 C          66.6987   96.8547    9.7456 C.3     1  UNL1        0.0522
     34 N          66.7323   94.6812   11.1684 N.ar    1  UNL1       -0.2309
@<TRIPOS>BOND
     1     9    10    1
     2    10    11   ar
     3    11    12   ar
     4    12    13   ar
     5    13    16    1
     6    16    17   ar
     7    17    18   ar
     8    18    19   ar
     9    19    20   ar
    10    13    14   ar
    11    14     1    1
    12     1     2    2
    13     1     3   am
    14     3     4    1
    15     4     5    1
    16     5     6    1
    17     6     7    1
    18     7     8    1
    19     8    21    1
    20    21    22    1
    21    22    23   ar
    22    23    24   ar
    23    24    25   ar
    24    25    26   ar
    25    26    28    1
    26    28    29   ar
    27    29    30   ar
    28    30    31   ar
    29    31    32   ar
    30    32    33    1
    31    32    34   ar
    32    26    27   ar
    33    14    15   ar
    34    15    10   ar
    35    20    16   ar
    36     8     3    1
    37    27    22   ar
    38    34    28   ar
@<TRIPOS>MOLECULE
*****
 34 38 0 0 0
SMALL
GASTEIGER

@<TRIPOS>ATOM
      1 C          62.3883   84.7555   12.2440 C.2     1  UNL1        0.2506
      2 O          61.8680   85.8069   13.1788 O.2     1  UNL1       -0.2699
      3 N          62.6058   85.0806   10.7959 N.am    1  UNL1       -0.2723
      4 C          63.1260   84.0292    9.8611 C.3     1  UNL1        0.1257
      5 C          63.3435   84.3543    8.4129 C.3     1  UNL1        0.1637
      6 O          63.0407   85.7308    7.8997 O.3     1  UNL1       -0.3502
      7 C          62.5205   86.7822    8.8345 C.3     1  UNL1        0.1622
      8 C          62.3030   86.4572   10.2825 C.3     1  UNL1        0.1096
      9 C          62.7858   79.6380   11.4359 C.3     1  UNL1        0.0310
     10 C          62.8898   80.8202   12.3532 C.ar    1  UNL1       -0.0216
     11 C          63.2965   80.6259   13.7839 C.ar    1  UNL1       -0.0026
     12 C          63.4004   81.8081   14.7012 C.ar    1  UNL1        0.0207
     13 C          63.0977   83.1846   14.1880 C.ar    1  UNL1        0.1072
     14 C          62.6910   83.3789   12.7573 C.ar    1  UNL1        0.0726
     15 C          62.5870   82.1967   11.8400 C.ar    1  UNL1        0.0018
     16 N          63.2017   84.3668   15.1053 N.ar    1  UNL1       -0.1477
     17 N          62.2180   84.7434   16.1732 N.ar    1  UNL1       -0.1447
     18 C          62.7159   85.9894   16.8438 C.ar    1  UNL1        0.1446
     19 C          64.0075   86.3829   16.1903 C.ar    1  UNL1        0.1446
     20 N          64.3077   85.3801   15.1159 N.ar    1  UNL1       -0.1447
     21 C          61.7828   87.5086   11.2173 C.3     1  UNL1        0.0487
     22 C          62.4178   88.8672   11.2461 C.ar    1  UNL1       -0.0203
     23 C          62.4606   89.7015   10.0003 C.ar    1  UNL1       -0.0042
     24 C          63.0957   91.0602   10.0290 C.ar    1  UNL1       -0.0002
     25 C          63.6878   91.5845   11.3035 C.ar    1  UNL1        0.0030
     26 C          63.6450   90.7501   12.5493 C.ar    1  UNL1        0.0355
     27 C          63.0100   89.3915   12.5206 C.ar    1  UNL1       -0.0012
     28 C          64.2371   91.2744   13.8239 C.ar    1  UNL1        0.1619
     29 N          63.5563   91.0061   15.1333 N.ar    1  UNL1       -0.2251
     30 C          64.1484   91.5304   16.4078 C.ar    1  UNL1        0.1018
     31 C          65.4215   92.3230   16.3729 C.ar    1  UNL1        0.0354
     32 C          66.1023   92.5913   15.0636 C.ar    1  UNL1        0.0626
     33 C          67.3753   93.3839   15.0288 C.3     1  UNL1        0.0522
     34 N          65.5101   92.0670   13.7890 N.ar    1  UNL1       -0.2309
@<TRIPOS>BOND
     1     9    10    1
     2    10    11   ar
     3    11    12   ar
     4    12    13   ar
     5    13    16    1
     6    16    17   ar
     7    17    18   ar
     8    18    19   ar
     9    19    20   ar
    10    13    14   ar
    11    14     1    1
    12     1     2    2
    13     1     3   am
    14     3     4    1
    15     4     5    1
    16     5     6    1
    17     6     7    1
    18     7     8    1
    19     8    21    1
    20    21    22    1
    21    22    23   ar
    22    23    24   ar
    23    24    25   ar
    24    25    26   ar
    25    26    28    1
    26    28    29   ar
    27    29    30   ar
    28    30    31   ar
    29    31    32   ar
    30    32    33    1
    31    32    34   ar
    32    26    27   ar
    33    14    15   ar
    34    15    10   ar
    35    20    16   ar
    36     8     3    1
    37    27    22   ar
    38    34    28   ar
@<TRIPOS>MOLECULE
*****
 34 38 0 0 0
SMALL
GASTEIGER

@<TRIPOS>ATOM
      1 C          62.7573   87.4269   11.7197 C.2     1  UNL1        0.2506
      2 O          63.7037   87.8532   12.8026 O.2     1  UNL1       -0.2699
      3 N          61.6675   88.3535   11.2684 N.am    1  UNL1       -0.2723
      4 C          60.7212   87.9272   10.1855 C.3     1  UNL1        0.1257
      5 C          59.6314   88.8539    9.7342 C.3     1  UNL1        0.1637
      6 O          59.4880   90.2069   10.3657 O.3     1  UNL1       -0.3502
      7 C          60.4344   90.6332   11.4486 C.3     1  UNL1        0.1622
      8 C          61.5241   89.7066   11.8999 C.3     1  UNL1        0.1096
      9 C          62.9025   84.4353    7.4736 C.3     1  UNL1        0.0310
     10 C          62.9733   84.5781    8.9651 C.ar    1  UNL1       -0.0216
     11 C          63.1875   83.3679    9.8250 C.ar    1  UNL1       -0.0026
     12 C          63.2583   83.5107   11.3165 C.ar    1  UNL1        0.0207
     13 C          63.1149   84.8637   11.9481 C.ar    1  UNL1        0.1072
     14 C          62.9007   86.0738   11.0881 C.ar    1  UNL1        0.0726
     15 C          62.8299   85.9311    9.5966 C.ar    1  UNL1        0.0018
     16 N          63.1858   85.0065   13.4396 N.ar    1  UNL1       -0.1477
     17 N          62.0580   84.7777   14.4018 N.ar    1  UNL1       -0.1447
     18 C          62.5720   85.0329   15.7876 C.ar    1  UNL1        0.1446
     19 C          64.0175   85.4194   15.6820 C.ar    1  UNL1        0.1446
     20 N          64.3968   85.4030   14.2309 N.ar    1  UNL1       -0.1447
     21 C          62.4705   90.1329   12.9828 C.3     1  UNL1        0.0487
     22 C          63.6676   90.9713   12.6454 C.ar    1  UNL1       -0.0203
     23 C          63.7981   91.5769   11.2793 C.ar    1  UNL1       -0.0042
     24 C          64.9953   92.4154   10.9419 C.ar    1  UNL1       -0.0002
     25 C          66.0619   92.6482   11.9705 C.ar    1  UNL1        0.0030
     26 C          65.9313   92.0426   13.3367 C.ar    1  UNL1        0.0355
     27 C          64.7342   91.2042   13.6741 C.ar    1  UNL1       -0.0012
     28 C          66.9979   92.2755   14.3653 C.ar    1  UNL1        0.1619
     29 N          67.5492   91.1211   15.1487 N.ar    1  UNL1       -0.2251
     30 C          68.6157   91.3540   16.1774 C.ar    1  UNL1        0.1018
     31 C          69.1311   92.7412   16.4227 C.ar    1  UNL1        0.0354
     32 C          68.5798   93.8955   15.6393 C.ar    1  UNL1        0.0626
     33 C          69.0951   95.2826   15.8846 C.3     1  UNL1        0.0522
     34 N          67.5132   93.6626   14.6106 N.ar    1  UNL1       -0.2309
@<TRIPOS>BOND
     1     9    10    1
     2    10    11   ar
     3    11    12   ar
     4    12    13   ar
     5    13    16    1
     6    16    17   ar
     7    17    18   ar
     8    18    19   ar
     9    19    20   ar
    10    13    14   ar
    11    14     1    1
    12     1     2    2
    13     1     3   am
    14     3     4    1
    15     4     5    1
    16     5     6    1
    17     6     7    1
    18     7     8    1
    19     8    21    1
    20    21    22    1
    21    22    23   ar
    22    23    24   ar
    23    24    25   ar
    24    25    26   ar
    25    26    28    1
    26    28    29   ar
    27    29    30   ar
    28    30    31   ar
    29    31    32   ar
    30    32    33    1
    31    32    34   ar
    32    26    27   ar
    33    14    15   ar
    34    15    10   ar
    35    20    16   ar
    36     8     3    1
    37    27    22   ar
    38    34    28   ar
@<TRIPOS>MOLECULE
*****
 34 38 0 0 0
SMALL
GASTEIGER

@<TRIPOS>ATOM
      1 C          56.4994   95.4548   -4.4528 C.2     1  UNL1        0.2506
      2 O          57.6036   96.4116   -4.1132 O.2     1  UNL1       -0.2699
      3 N          56.7319   94.3683   -5.4604 N.am    1  UNL1       -0.2723
      4 C          55.6277   93.4115   -5.7999 C.3     1  UNL1        0.1257
      5 C          55.8603   92.3249   -6.8076 C.3     1  UNL1        0.1637
      6 O          57.1969   92.1952   -7.4757 O.3     1  UNL1       -0.3502
      7 C          58.3011   93.1520   -7.1362 C.3     1  UNL1        0.1622
      8 C          58.0687   94.2385   -6.1285 C.3     1  UNL1        0.1096
      9 C          51.4986   96.8556   -4.6270 C.3     1  UNL1        0.0310
     10 C          52.6623   96.2850   -3.8718 C.ar    1  UNL1       -0.0216
     11 C          52.4893   95.8442   -2.4485 C.ar    1  UNL1       -0.0026
     12 C          53.6529   95.2736   -1.6933 C.ar    1  UNL1        0.0207
     13 C          54.9896   95.1438   -2.3614 C.ar    1  UNL1        0.1072
     14 C          55.1627   95.5846   -3.7846 C.ar    1  UNL1        0.0726
     15 C          53.9990   96.1552   -4.5398 C.ar    1  UNL1        0.0018
     16 N          56.1533   94.5732   -1.6062 N.ar    1  UNL1       -0.1477
     17 N          57.2655   95.3579   -0.9759 N.ar    1  UNL1       -0.1447
     18 C          58.2087   94.3874   -0.3288 C.ar    1  UNL1        0.1446
     19 C          57.6793   93.0029   -0.5592 C.ar    1  UNL1        0.1446
     20 N          56.4090   93.1178   -1.3487 N.ar    1  UNL1       -0.1447
     21 C          59.1729   95.1953   -5.7890 C.3     1  UNL1        0.0487
     22 C          60.4964   94.6746   -5.3126 C.ar    1  UNL1       -0.0203
     23 C          61.6110   94.4520   -6.2914 C.ar    1  UNL1       -0.0042
     24 C          62.9347   93.9312   -5.8151 C.ar    1  UNL1       -0.0002
     25 C          63.1437   93.6331   -4.3600 C.ar    1  UNL1        0.0030
     26 C          62.0290   93.8557   -3.3811 C.ar    1  UNL1        0.0355
     27 C          60.7054   94.3765   -3.8575 C.ar    1  UNL1       -0.0012
     28 C          62.2380   93.5576   -1.9260 C.ar    1  UNL1        0.1619
     29 N          61.2005   92.7903   -1.1611 N.ar    1  UNL1       -0.2251
     30 C          61.4095   92.4922    0.2941 C.ar    1  UNL1        0.1018
     31 C          62.6559   92.9614    0.9843 C.ar    1  UNL1        0.0354
     32 C          63.6933   93.7287    0.2194 C.ar    1  UNL1        0.0626
     33 C          64.9396   94.1979    0.9096 C.3     1  UNL1        0.0522
     34 N          63.4843   94.0268   -1.2357 N.ar    1  UNL1       -0.2309
@<TRIPOS>BOND
     1     9    10    1
     2    10    11   ar
     3    11    12   ar
     4    12    13   ar
     5    13    16    1
     6    16    17   ar
     7    17    18   ar
     8    18    19   ar
     9    19    20   ar
    10    13    14   ar
    11    14     1    1
    12     1     2    2
    13     1     3   am
    14     3     4    1
    15     4     5    1
    16     5     6    1
    17     6     7    1
    18     7     8    1
    19     8    21    1
    20    21    22    1
    21    22    23   ar
    22    23    24   ar
    23    24    25   ar
    24    25    26   ar
    25    26    28    1
    26    28    29   ar
    27    29    30   ar
    28    30    31   ar
    29    31    32   ar
    30    32    33    1
    31    32    34   ar
    32    26    27   ar
    33    14    15   ar
    34    15    10   ar
    35    20    16   ar
    36     8     3    1
    37    27    22   ar
    38    34    28   ar
