@<TRIPOS>MOLECULE
*****
 54 60 0 0 0
SMALL
GASTEIGER

@<TRIPOS>ATOM
      1 C          60.8372   88.6997    9.6306 C.2     1  UNL1        0.1699
      2 N          60.0498   89.6287    8.7549 N.2     1  UNL1       -0.0640
      3 C          59.5270   89.1504    7.4328 C.cat   1  UNL1        0.4643
      4 N          59.7917   87.7430    6.9864 N.2     1  UNL1        0.0296
      5 C          60.5791   86.8140    7.8621 C.2     1  UNL1        0.3686
      6 N          60.9953   85.3833    7.6892 N.2     1  UNL1       -0.0340
      7 C          61.7752   84.9774    8.9045 C.2     1  UNL1        0.2321
      8 C          61.8411   86.1573    9.8284 C.2     1  UNL1        0.0440
      9 C          61.1019   87.2924    9.1842 C.3     1  UNL1        0.1961
     10 C          62.8652   89.8791   12.7227 C.ar    1  UNL1        0.1559
     11 C          62.8013   89.4026   11.3019 C.ar    1  UNL1        0.0469
     12 C          61.3599   89.1781   10.9527 C.ar    1  UNL1        0.1105
     13 N          60.5330   89.5159   12.1577 N.ar    1  UNL1       -0.2461
     14 C          59.0382   89.4346   12.2521 C.3     1  UNL1        0.1538
     15 N          61.4633   89.9492   13.2516 N.ar    1  UNL1       -0.1645
     16 N          64.6250   91.6346   13.4788 N.am    1  UNL1       -0.2796
     17 C          64.1121   90.2250   13.4814 C.2     1  UNL1        0.2690
     18 O          64.8462   89.1613   14.2427 O.2     1  UNL1       -0.2681
     19 H          64.1432   92.3328   12.9791 H       1  UNL1        0.1552
     20 C          65.7986   92.2749   15.7065 C.ar    1  UNL1       -0.0090
     21 C          67.0456   92.6207   16.4652 C.ar    1  UNL1       -0.0031
     22 C          68.3657   92.6721   15.7548 C.ar    1  UNL1       -0.0006
     23 C          68.4390   92.3776   14.2859 C.ar    1  UNL1       -0.0031
     24 C          67.1921   92.0318   13.5271 C.ar    1  UNL1       -0.0090
     25 C          65.8719   91.9804   14.2375 C.ar    1  UNL1        0.0425
     26 C          63.8508   90.8997   16.7384 C.3     1  UNL1        0.0051
     27 C          64.4784   92.2235   16.4167 C.3     1  UNL1        0.0276
     28 C          67.2654   91.7373   12.0582 C.3     1  UNL1        0.0276
     29 C          66.8400   92.7758   11.0629 C.3     1  UNL1        0.0051
     30 N          58.7396   90.0795    6.5571 N.pl3   1  UNL1       -0.1896
     31 H          57.7719   90.1896    6.7008 H       1  UNL1        0.2524
     32 C          59.4266   90.8408    5.4624 C.ar    1  UNL1        0.1435
     33 C          60.8612   90.5513    5.1336 C.ar    1  UNL1        0.0356
     34 C          61.5482   91.3127    4.0389 C.ar    1  UNL1        0.0174
     35 C          60.8006   92.3635    3.2729 C.ar    1  UNL1        0.0511
     36 C          59.3660   92.6530    3.6016 C.ar    1  UNL1        0.0541
     37 C          58.6790   91.8917    4.6964 C.ar    1  UNL1        0.1684
     38 N          61.4875   93.1249    2.1782 N.pl3   1  UNL1       -0.3074
     39 C          62.9850   93.1282    2.0925 C.3     1  UNL1        0.0913
     40 C          63.6720   93.8895    0.9978 C.3     1  UNL1        0.0305
     41 C          62.8614   94.6476   -0.0112 C.3     1  UNL1        0.0801
     42 C          61.3639   94.6443    0.0744 C.3     1  UNL1        0.0305
     43 C          60.6769   93.8830    1.1691 C.3     1  UNL1        0.0913
     44 C          63.5484   95.4089   -1.1059 C.2     1  UNL1        0.2253
     45 O          63.9136   96.8496   -0.9025 O.2     1  UNL1       -0.2749
     46 N          63.8704   94.7297   -2.4040 N.am    1  UNL1       -0.2767
     47 C          63.5053   93.2891   -2.6074 C.3     1  UNL1        0.1107
     48 C          63.8272   92.6099   -3.9055 C.3     1  UNL1        0.0939
     49 N          64.5142   93.3713   -5.0002 N.3     1  UNL1       -0.2686
     50 C          64.8361   92.6921   -6.2982 C.3     1  UNL1        0.0897
     51 C          64.8793   94.8119   -4.7967 C.3     1  UNL1        0.0939
     52 C          64.5574   95.4911   -3.4986 C.3     1  UNL1        0.1107
     53 O          57.2444   92.1812    5.0251 O.3     1  UNL1       -0.4687
     54 C          56.2011   91.1216    4.8279 C.3     1  UNL1        0.2526
@<TRIPOS>BOND
     1    26    27    1
     2    27    20    1
     3    20    21   ar
     4    21    22   ar
     5    22    23   ar
     6    23    24   ar
     7    24    28    1
     8    28    29    1
     9    24    25   ar
    10    25    16    1
    11    16    17   am
    12    17    18    2
    13    17    10    1
    14    10    11   ar
    15    11    12   ar
    16    12     1    1
    17     1     2    2
    18     2     3    1
    19     3    30    1
    20    30    32    1
    21    32    33   ar
    22    33    34   ar
    23    34    35   ar
    24    35    38    1
    25    38    39    1
    26    39    40    1
    27    40    41    1
    28    41    44    1
    29    44    45    2
    30    44    46   am
    31    46    47    1
    32    47    48    1
    33    48    49    1
    34    49    50    1
    35    49    51    1
    36    51    52    1
    37    41    42    1
    38    42    43    1
    39    35    36   ar
    40    36    37   ar
    41    37    53    1
    42    53    54    1
    43     3     4    2
    44     4     5    1
    45     5     6    2
    46     6     7    1
    47     7     8    2
    48     8     9    1
    49    12    13   ar
    50    13    14    1
    51    13    15   ar
    52    25    20   ar
    53    15    10   ar
    54     9     1    1
    55    37    32   ar
    56     9     5    1
    57    43    38    1
    58    52    46    1
    59    16    19    1
    60    30    31    1
