@<TRIPOS>MOLECULE
*****
 43 48 0 0 0
SMALL
GASTEIGER

@<TRIPOS>ATOM
      1 C          65.8462   91.4154   14.1290 C.ar    1  UNL1        0.0870
      2 N          65.2790   90.3205   14.9831 N.ar    1  UNL1       -0.2279
      3 C          64.0874   89.5416   14.5105 C.ar    1  UNL1        0.1596
      4 N          63.5202   88.4467   15.3646 N.pl3   1  UNL1       -0.3402
      5 C          63.4630   89.8576   13.1836 C.ar    1  UNL1        0.1696
      6 C          64.0303   90.9524   12.3295 C.ar    1  UNL1        0.0428
      7 C          65.2219   91.7313   12.8022 C.ar    1  UNL1        0.0380
      8 H          63.9299   88.2394   16.2354 H       1  UNL1        0.1438
      9 H          62.7381   87.9355   15.0543 H       1  UNL1        0.1438
     10 C          65.7891   92.8261   11.9481 C.ar    1  UNL1        0.0777
     11 C          65.4489   94.2576   12.2399 C.ar    1  UNL1        0.1176
     12 N          66.0161   95.3525   11.3858 N.ar    1  UNL1       -0.2209
     13 C          66.9236   95.0159   10.2399 C.ar    1  UNL1        0.2006
     14 N          67.6282   95.8746    9.2319 N.ar    1  UNL1       -0.1272
     15 N          68.4040   94.9739    8.3170 N.ar    1  UNL1       -0.1493
     16 C          68.1788   93.5585    8.7597 C.ar    1  UNL1        0.0995
     17 C          68.7655   92.3324    8.1253 C.3     1  UNL1        0.0557
     18 C          67.2638   93.5845    9.9481 C.ar    1  UNL1        0.1101
     19 N          66.6966   92.4896   10.8022 N.ar    1  UNL1       -0.3484
     20 H          66.9199   91.5501   10.6107 H       1  UNL1        0.1661
     21 C          68.8285   91.3498   12.8058 C.3     1  UNL1        0.0725
     22 C          68.4086   92.1641   13.9934 C.ar    1  UNL1        0.1248
     23 O          69.2858   93.0913   14.7813 O.2     1  UNL1       -0.4546
     24 C          68.4571   93.6945   15.8765 C.ar    1  UNL1        0.1792
     25 C          67.0678   93.1401   15.7655 C.ar    1  UNL1        0.0448
     26 C          67.0378   92.1943   14.6017 C.ar    1  UNL1        0.0512
     27 O          62.2714   89.0786   12.7109 O.3     1  UNL1       -0.4712
     28 C          61.0182   89.7969   12.3068 C.3     1  UNL1        0.2211
     29 C          60.3207   89.4282   11.0310 C.3     1  UNL1        0.0996
     30 N          60.0922   90.4674    9.9738 N.3     1  UNL1       -0.3190
     31 H          59.6086   90.0453    9.1810 H       1  UNL1        0.1189
     32 H          60.9895   90.8412    9.6648 H       1  UNL1        0.1189
     33 C          59.8516   88.0202   10.8126 C.3     1  UNL1        0.0481
     34 C          60.6088   87.1121    9.8895 C.2     1  UNL1        0.0089
     35 C          60.4961   87.0820    8.3940 C.2     1  UNL1        0.1340
     36 CL         59.6065   87.9547    7.5591 Cl      1  UNL1       -0.0617
     37 N          61.4293   86.0261    7.8801 N.2     1  UNL1       -0.2383
     38 C          62.1187   85.4036    9.0579 C.2     1  UNL1        0.0640
     39 C          63.1427   84.3123    9.1600 C.3     1  UNL1        0.0718
     40 C          63.6595   83.8922   10.5040 C.2     1  UNL1       -0.0198
     41 C          63.1524   84.5634   11.7459 C.2     1  UNL1       -0.0042
     42 C          62.1285   85.6547   11.6438 C.2     1  UNL1        0.0006
     43 C          61.6116   86.0748   10.2998 C.2     1  UNL1        0.0123
@<TRIPOS>BOND
     1    21    22    1
     2    22    23   ar
     3    23    24   ar
     4    24    25   ar
     5    25    26   ar
     6    26     1    1
     7     1     2   ar
     8     2     3   ar
     9     3     4    1
    10     3     5   ar
    11     5    27    1
    12    27    28    1
    13    28    29    1
    14    29    30    1
    15    29    33    1
    16    33    34    1
    17    34    35    2
    18    35    36    1
    19    35    37    1
    20    37    38    2
    21    38    39    1
    22    39    40    1
    23    40    41    2
    24    41    42    1
    25    42    43    2
    26     5     6   ar
    27     6     7   ar
    28     7    10    1
    29    10    11   ar
    30    11    12   ar
    31    12    13   ar
    32    13    14   ar
    33    14    15   ar
    34    15    16   ar
    35    16    17    1
    36    16    18   ar
    37    18    19   ar
    38    26    22   ar
    39     7     1   ar
    40    19    10   ar
    41    43    34    1
    42    18    13    1
    43    43    38    1
    44     4     8    1
    45     4     9    1
    46    30    31    1
    47    30    32    1
    48    19    20    1
@<TRIPOS>MOLECULE
*****
 43 48 0 0 0
SMALL
GASTEIGER

@<TRIPOS>ATOM
      1 C          61.8332   87.0755    9.4894 C.ar    1  UNL1        0.0870
      2 N          61.4945   88.5322    9.3743 N.ar    1  UNL1       -0.2279
      3 C          61.7434   89.4538   10.5313 C.ar    1  UNL1        0.1596
      4 N          61.4048   90.9105   10.4161 N.pl3   1  UNL1       -0.3402
      5 C          62.3310   88.9186   11.8035 C.ar    1  UNL1        0.1696
      6 C          62.6697   87.4619   11.9187 C.ar    1  UNL1        0.0428
      7 C          62.4207   86.5404   10.7616 C.ar    1  UNL1        0.0380
      8 H          61.0191   91.2617    9.5812 H       1  UNL1        0.1438
      9 H          61.5681   91.5154   11.1755 H       1  UNL1        0.1438
     10 C          62.7594   85.0836   10.8767 C.ar    1  UNL1        0.0777
     11 C          63.5897   84.4207    9.8180 C.ar    1  UNL1        0.1176
     12 N          63.9284   82.9640    9.9331 N.ar    1  UNL1       -0.2209
     13 C          63.4368   82.1701   11.1070 C.ar    1  UNL1        0.2006
     14 N          63.6093   80.7296   11.4877 N.ar    1  UNL1       -0.1272
     15 N          62.8856   80.5021   12.7817 N.ar    1  UNL1       -0.1493
     16 C          62.2658   81.8022   13.2008 C.ar    1  UNL1        0.0995
     17 C          61.4488   82.0311   14.4377 C.3     1  UNL1        0.0557
     18 C          62.6064   82.8331   12.1658 C.ar    1  UNL1        0.1101
     19 N          62.2677   84.2898   12.0506 N.ar    1  UNL1       -0.3484
     20 H          61.7228   84.7249   12.7456 H       1  UNL1        0.1661
     21 C          58.9615   86.5678    8.0249 C.3     1  UNL1        0.0725
     22 C          60.2643   85.9205    7.6592 C.ar    1  UNL1        0.1248
     23 O          60.4758   84.9262    6.5562 O.2     1  UNL1       -0.4546
     24 C          61.9266   84.5451    6.5477 C.ar    1  UNL1        0.1792
     25 C          62.6117   85.3038    7.6455 C.ar    1  UNL1        0.0448
     26 C          61.5843   86.1538    8.3324 C.ar    1  UNL1        0.0512
     27 O          62.5799   89.8403   12.9606 O.3     1  UNL1       -0.4712
     28 C          63.3683   89.3624   14.1438 C.3     1  UNL1        0.2211
     29 C          64.1294   90.3447   14.9840 C.3     1  UNL1        0.0996
     30 N          63.4398   91.0671   16.1031 N.3     1  UNL1       -0.3190
     31 H          64.1022   91.6906   16.5645 H       1  UNL1        0.1189
     32 H          63.0846   90.3892   16.7775 H       1  UNL1        0.1189
     33 C          65.5803   90.6045   14.7049 C.3     1  UNL1        0.0481
     34 C          66.0209   91.9541   14.2207 C.2     1  UNL1        0.0089
     35 C          66.8066   92.9602   15.0085 C.2     1  UNL1        0.1340
     36 CL         67.2896   92.7933   16.4187 Cl      1  UNL1       -0.0617
     37 N          67.0244   94.1624   14.1383 N.2     1  UNL1       -0.2383
     38 C          66.3734   93.8994   12.8128 C.2     1  UNL1        0.0640
     39 C          66.2652   94.7263   11.5660 C.3     1  UNL1        0.0718
     40 C          65.5368   94.1884   10.3702 C.2     1  UNL1       -0.0198
     41 C          64.9166   92.8236   10.4211 C.2     1  UNL1       -0.0042
     42 C          65.0247   91.9967   11.6679 C.2     1  UNL1        0.0006
     43 C          65.7531   92.5346   12.8637 C.2     1  UNL1        0.0123
@<TRIPOS>BOND
     1    21    22    1
     2    22    23   ar
     3    23    24   ar
     4    24    25   ar
     5    25    26   ar
     6    26     1    1
     7     1     2   ar
     8     2     3   ar
     9     3     4    1
    10     3     5   ar
    11     5    27    1
    12    27    28    1
    13    28    29    1
    14    29    30    1
    15    29    33    1
    16    33    34    1
    17    34    35    2
    18    35    36    1
    19    35    37    1
    20    37    38    2
    21    38    39    1
    22    39    40    1
    23    40    41    2
    24    41    42    1
    25    42    43    2
    26     5     6   ar
    27     6     7   ar
    28     7    10    1
    29    10    11   ar
    30    11    12   ar
    31    12    13   ar
    32    13    14   ar
    33    14    15   ar
    34    15    16   ar
    35    16    17    1
    36    16    18   ar
    37    18    19   ar
    38    26    22   ar
    39     7     1   ar
    40    19    10   ar
    41    43    34    1
    42    18    13    1
    43    43    38    1
    44     4     8    1
    45     4     9    1
    46    30    31    1
    47    30    32    1
    48    19    20    1
@<TRIPOS>MOLECULE
*****
 43 48 0 0 0
SMALL
GASTEIGER

@<TRIPOS>ATOM
      1 C          61.7478   86.9563    9.4006 C.ar    1  UNL1        0.0870
      2 N          61.3702   88.4036    9.2872 N.ar    1  UNL1       -0.2279
      3 C          61.5798   89.3267   10.4508 C.ar    1  UNL1        0.1596
      4 N          61.2022   90.7740   10.3374 N.pl3   1  UNL1       -0.3402
      5 C          62.1672   88.8026   11.7277 C.ar    1  UNL1        0.1696
      6 C          62.5449   87.3554   11.8410 C.ar    1  UNL1        0.0428
      7 C          62.3351   86.4323   10.6774 C.ar    1  UNL1        0.0380
      8 H          60.8167   91.1180    9.4994 H       1  UNL1        0.1438
      9 H          61.3398   91.3799   11.1011 H       1  UNL1        0.1438
     10 C          62.7128   84.9850   10.7907 C.ar    1  UNL1        0.0777
     11 C          63.6340   84.3689    9.7799 C.ar    1  UNL1        0.1176
     12 N          64.0117   82.9216    9.8932 N.ar    1  UNL1       -0.2209
     13 C          63.4681   82.0905   11.0173 C.ar    1  UNL1        0.2006
     14 N          63.6617   80.6491   11.3845 N.ar    1  UNL1       -0.1272
     15 N          62.8601   80.3742   12.6222 N.ar    1  UNL1       -0.1493
     16 C          62.1712   81.6459   13.0200 C.ar    1  UNL1        0.0995
     17 C          61.2655   81.8253   14.2022 C.3     1  UNL1        0.0557
     18 C          62.5469   82.7066   12.0282 C.ar    1  UNL1        0.1101
     19 N          62.1693   84.1538   11.9148 N.ar    1  UNL1       -0.3484
     20 H          61.5647   84.5582   12.5783 H       1  UNL1        0.1661
     21 C          58.9255   86.4404    7.8458 C.3     1  UNL1        0.0725
     22 C          60.2408   85.7960    7.5224 C.ar    1  UNL1        0.1248
     23 O          60.4898   84.8013    6.4275 O.2     1  UNL1       -0.4546
     24 C          61.9410   84.4238    6.4656 C.ar    1  UNL1        0.1792
     25 C          62.5889   85.1851    7.5839 C.ar    1  UNL1        0.0448
     26 C          61.5381   86.0331    8.2370 C.ar    1  UNL1        0.0512
     27 O          62.3769   89.7258   12.8912 O.3     1  UNL1       -0.4712
     28 C          63.4661   90.7560   12.8443 C.3     1  UNL1        0.2211
     29 C          64.5482   90.7511   13.8831 C.3     1  UNL1        0.0996
     30 N          65.0883   92.0477   14.4096 N.3     1  UNL1       -0.3190
     31 H          65.8118   91.8580   15.1031 H       1  UNL1        0.1189
     32 H          64.3333   92.5796   14.8427 H       1  UNL1        0.1189
     33 C          65.0902   89.4496   14.3955 C.3     1  UNL1        0.0481
     34 C          64.2487   88.5860   15.2877 C.2     1  UNL1        0.0089
     35 C          63.3561   89.0666   16.3933 C.2     1  UNL1        0.1340
     36 CL         63.1482   90.4952   16.8007 Cl      1  UNL1       -0.0617
     37 N          62.7078   87.8678   17.0199 N.2     1  UNL1       -0.2383
     38 C          63.1998   86.6463   16.3016 C.2     1  UNL1        0.0640
     39 C          62.9036   85.1872   16.4840 C.3     1  UNL1        0.0718
     40 C          63.5598   84.1720   15.5959 C.2     1  UNL1       -0.0198
     41 C          64.5121   84.6159   14.5254 C.2     1  UNL1       -0.0042
     42 C          64.8083   86.0750   14.3430 C.2     1  UNL1        0.0006
     43 C          64.1521   87.0902   15.2311 C.2     1  UNL1        0.0123
@<TRIPOS>BOND
     1    21    22    1
     2    22    23   ar
     3    23    24   ar
     4    24    25   ar
     5    25    26   ar
     6    26     1    1
     7     1     2   ar
     8     2     3   ar
     9     3     4    1
    10     3     5   ar
    11     5    27    1
    12    27    28    1
    13    28    29    1
    14    29    30    1
    15    29    33    1
    16    33    34    1
    17    34    35    2
    18    35    36    1
    19    35    37    1
    20    37    38    2
    21    38    39    1
    22    39    40    1
    23    40    41    2
    24    41    42    1
    25    42    43    2
    26     5     6   ar
    27     6     7   ar
    28     7    10    1
    29    10    11   ar
    30    11    12   ar
    31    12    13   ar
    32    13    14   ar
    33    14    15   ar
    34    15    16   ar
    35    16    17    1
    36    16    18   ar
    37    18    19   ar
    38    26    22   ar
    39     7     1   ar
    40    19    10   ar
    41    43    34    1
    42    18    13    1
    43    43    38    1
    44     4     8    1
    45     4     9    1
    46    30    31    1
    47    30    32    1
    48    19    20    1
@<TRIPOS>MOLECULE
*****
 43 48 0 0 0
SMALL
GASTEIGER

@<TRIPOS>ATOM
      1 C          65.7413   91.0582   14.1069 C.ar    1  UNL1        0.0870
      2 N          65.1740   89.9174   14.8985 N.ar    1  UNL1       -0.2279
      3 C          64.0413   89.1075   14.3407 C.ar    1  UNL1        0.1596
      4 N          63.4740   87.9667   15.1323 N.pl3   1  UNL1       -0.3402
      5 C          63.4759   89.4385   12.9913 C.ar    1  UNL1        0.1696
      6 C          64.0432   90.5793   12.1997 C.ar    1  UNL1        0.0428
      7 C          65.1760   91.3891   12.7575 C.ar    1  UNL1        0.0380
      8 H          63.8451   87.7495   16.0180 H       1  UNL1        0.1438
      9 H          62.7306   87.4351   14.7663 H       1  UNL1        0.1438
     10 C          65.7433   92.5300   11.9659 C.ar    1  UNL1        0.0777
     11 C          65.3697   93.9412   12.3107 C.ar    1  UNL1        0.1176
     12 N          65.9370   95.0820   11.5191 N.ar    1  UNL1       -0.2209
     13 C          66.8779   94.8117   10.3827 C.ar    1  UNL1        0.2006
     14 N          67.5906   95.7257    9.4305 N.ar    1  UNL1       -0.1272
     15 N          68.4047   94.8795    8.4972 N.ar    1  UNL1       -0.1493
     16 C          68.1950   93.4424    8.8725 C.ar    1  UNL1        0.0995
     17 C          68.8195   92.2556    8.2005 C.3     1  UNL1        0.0557
     18 C          67.2515   93.4005   10.0378 C.ar    1  UNL1        0.1101
     19 N          66.6841   92.2597   10.8294 N.ar    1  UNL1       -0.3484
     20 H          66.9294   91.3335   10.6030 H       1  UNL1        0.1661
     21 C          65.6544   92.8590   16.8269 C.3     1  UNL1        0.0725
     22 C          66.8341   92.6959   15.9149 C.ar    1  UNL1        0.1248
     23 O          68.1809   93.3318   16.0930 O.2     1  UNL1       -0.4546
     24 C          69.0532   92.8970   14.9528 C.ar    1  UNL1        0.1792
     25 C          68.2455   91.9924   14.0700 C.ar    1  UNL1        0.0448
     26 C          66.8740   91.8681   14.6646 C.ar    1  UNL1        0.0512
     27 O          62.3432   88.6286   12.4335 O.3     1  UNL1       -0.4712
     28 C          62.6028   87.6200   11.3540 C.3     1  UNL1        0.2211
     29 C          62.4659   86.1554   11.6474 C.3     1  UNL1        0.0996
     30 N          61.5286   85.3121   10.8347 N.3     1  UNL1       -0.3190
     31 H          61.5617   84.3488   11.1686 H       1  UNL1        0.1189
     32 H          61.8079   85.3419    9.8542 H       1  UNL1        0.1189
     33 C          63.2662   85.5340   12.7536 C.3     1  UNL1        0.0481
     34 C          62.9239   84.1590   13.2459 C.2     1  UNL1        0.0089
     35 C          62.4670   83.8067   14.6305 C.2     1  UNL1        0.1340
     36 CL         62.2720   84.7674   15.7658 Cl      1  UNL1       -0.0617
     37 N          62.2392   82.3249   14.6803 N.2     1  UNL1       -0.2383
     38 C          62.5554   81.7615   13.3266 C.2     1  UNL1        0.0640
     39 C          62.5126   80.3627   12.7866 C.3     1  UNL1        0.0718
     40 C          62.8930   80.0975   11.3601 C.2     1  UNL1       -0.0198
     41 C          63.3162   81.2311   10.4736 C.2     1  UNL1       -0.0042
     42 C          63.3590   82.6299   11.0136 C.2     1  UNL1        0.0006
     43 C          62.9786   82.8951   12.4400 C.2     1  UNL1        0.0123
@<TRIPOS>BOND
     1    21    22    1
     2    22    23   ar
     3    23    24   ar
     4    24    25   ar
     5    25    26   ar
     6    26     1    1
     7     1     2   ar
     8     2     3   ar
     9     3     4    1
    10     3     5   ar
    11     5    27    1
    12    27    28    1
    13    28    29    1
    14    29    30    1
    15    29    33    1
    16    33    34    1
    17    34    35    2
    18    35    36    1
    19    35    37    1
    20    37    38    2
    21    38    39    1
    22    39    40    1
    23    40    41    2
    24    41    42    1
    25    42    43    2
    26     5     6   ar
    27     6     7   ar
    28     7    10    1
    29    10    11   ar
    30    11    12   ar
    31    12    13   ar
    32    13    14   ar
    33    14    15   ar
    34    15    16   ar
    35    16    17    1
    36    16    18   ar
    37    18    19   ar
    38    26    22   ar
    39     7     1   ar
    40    19    10   ar
    41    43    34    1
    42    18    13    1
    43    43    38    1
    44     4     8    1
    45     4     9    1
    46    30    31    1
    47    30    32    1
    48    19    20    1
@<TRIPOS>MOLECULE
*****
 43 48 0 0 0
SMALL
GASTEIGER

@<TRIPOS>ATOM
      1 C          65.8187   91.0178   14.0970 C.ar    1  UNL1        0.0870
      2 N          65.2741   89.8910   14.9238 N.ar    1  UNL1       -0.2279
      3 C          64.0935   89.1049   14.4356 C.ar    1  UNL1        0.1596
      4 N          63.5489   87.9781   15.2625 N.pl3   1  UNL1       -0.3402
      5 C          63.4575   89.4456   13.1205 C.ar    1  UNL1        0.1696
      6 C          64.0021   90.5724   12.2936 C.ar    1  UNL1        0.0428
      7 C          65.1827   91.3585   12.7819 C.ar    1  UNL1        0.0380
      8 H          63.9663   87.7544   16.1256 H       1  UNL1        0.1438
      9 H          62.7741   87.4621   14.9421 H       1  UNL1        0.1438
     10 C          65.7273   92.4853   11.9550 C.ar    1  UNL1        0.0777
     11 C          65.3192   93.8980   12.2509 C.ar    1  UNL1        0.1176
     12 N          65.8638   95.0248   11.4240 N.ar    1  UNL1       -0.2209
     13 C          66.8165   94.7389   10.3013 C.ar    1  UNL1        0.2006
     14 N          67.5125   95.6371    9.3222 N.ar    1  UNL1       -0.1272
     15 N          68.3509   94.7796    8.4212 N.ar    1  UNL1       -0.1493
     16 C          68.1729   93.3513    8.8435 C.ar    1  UNL1        0.0995
     17 C          68.8282   92.1578    8.2142 C.3     1  UNL1        0.0557
     18 C          67.2246   93.3262   10.0054 C.ar    1  UNL1        0.1101
     19 N          66.6800   92.1994   10.8323 N.ar    1  UNL1       -0.3484
     20 H          66.9479   91.2721   10.6381 H       1  UNL1        0.1661
     21 C          65.9077   92.8813   16.7744 C.3     1  UNL1        0.0725
     22 C          67.0401   92.6604   15.8159 C.ar    1  UNL1        0.1248
     23 O          68.4123   93.2574   15.9197 O.2     1  UNL1       -0.4546
     24 C          69.2194   92.7697   14.7532 C.ar    1  UNL1        0.1792
     25 C          68.3461   91.8714   13.9284 C.ar    1  UNL1        0.0448
     26 C          66.9992   91.8039   14.5852 C.ar    1  UNL1        0.0512
     27 O          62.2770   88.6595   12.6322 O.3     1  UNL1       -0.4712
     28 C          62.3008   88.0414   11.2657 C.3     1  UNL1        0.2211
     29 C          61.0437   87.4715   10.6784 C.3     1  UNL1        0.0996
     30 N          59.7344   88.1740   10.8837 N.3     1  UNL1       -0.3190
     31 H          58.9917   87.6513   10.4194 H       1  UNL1        0.1189
     32 H          59.7870   89.1132   10.4892 H       1  UNL1        0.1189
     33 C          61.0960   86.1990    9.8858 C.3     1  UNL1        0.0481
     34 C          62.2316   85.2389   10.0827 C.2     1  UNL1        0.0089
     35 C          63.1087   84.6776    9.0031 C.2     1  UNL1        0.1340
     36 CL         63.0044   84.9778    7.5372 Cl      1  UNL1       -0.0617
     37 N          64.1086   83.7633    9.6469 N.2     1  UNL1       -0.2383
     38 C          63.8493   83.7597   11.1244 C.2     1  UNL1        0.0640
     39 C          64.5197   83.0437   12.2592 C.3     1  UNL1        0.0718
     40 C          64.0300   83.2397   13.6634 C.2     1  UNL1       -0.0198
     41 C          62.8699   84.1517   13.9327 C.2     1  UNL1       -0.0042
     42 C          62.1996   84.8676   12.7978 C.2     1  UNL1        0.0006
     43 C          62.6893   84.6716   11.3937 C.2     1  UNL1        0.0123
@<TRIPOS>BOND
     1    21    22    1
     2    22    23   ar
     3    23    24   ar
     4    24    25   ar
     5    25    26   ar
     6    26     1    1
     7     1     2   ar
     8     2     3   ar
     9     3     4    1
    10     3     5   ar
    11     5    27    1
    12    27    28    1
    13    28    29    1
    14    29    30    1
    15    29    33    1
    16    33    34    1
    17    34    35    2
    18    35    36    1
    19    35    37    1
    20    37    38    2
    21    38    39    1
    22    39    40    1
    23    40    41    2
    24    41    42    1
    25    42    43    2
    26     5     6   ar
    27     6     7   ar
    28     7    10    1
    29    10    11   ar
    30    11    12   ar
    31    12    13   ar
    32    13    14   ar
    33    14    15   ar
    34    15    16   ar
    35    16    17    1
    36    16    18   ar
    37    18    19   ar
    38    26    22   ar
    39     7     1   ar
    40    19    10   ar
    41    43    34    1
    42    18    13    1
    43    43    38    1
    44     4     8    1
    45     4     9    1
    46    30    31    1
    47    30    32    1
    48    19    20    1
@<TRIPOS>MOLECULE
*****
 43 48 0 0 0
SMALL
GASTEIGER

@<TRIPOS>ATOM
      1 C          61.7335   87.1935    9.4190 C.ar    1  UNL1        0.0870
      2 N          61.3634   88.6380    9.2568 N.ar    1  UNL1       -0.2279
      3 C          61.6898   89.6221   10.3408 C.ar    1  UNL1        0.1596
      4 N          61.3198   91.0667   10.1787 N.pl3   1  UNL1       -0.3402
      5 C          62.3863   89.1616   11.5871 C.ar    1  UNL1        0.1696
      6 C          62.7564   87.7171   11.7492 C.ar    1  UNL1        0.0428
      7 C          62.4300   86.7330   10.6652 C.ar    1  UNL1        0.0380
      8 H          60.8627   91.3689    9.3608 H       1  UNL1        0.1438
      9 H          61.5340   91.7126   10.8901 H       1  UNL1        0.1438
     10 C          62.8000   85.2885   10.8274 C.ar    1  UNL1        0.0777
     11 C          63.5898   84.5921    9.7591 C.ar    1  UNL1        0.1176
     12 N          63.9599   83.1475    9.9212 N.ar    1  UNL1       -0.2209
     13 C          63.5402   82.3993   11.1517 C.ar    1  UNL1        0.2006
     14 N          63.7570   80.9802   11.5862 N.ar    1  UNL1       -0.1272
     15 N          63.1012   80.7993   12.9231 N.ar    1  UNL1       -0.1493
     16 C          62.4791   82.1069   13.3148 C.ar    1  UNL1        0.0995
     17 C          61.7191   82.3780   14.5793 C.3     1  UNL1        0.0557
     18 C          62.7504   83.0957   12.2200 C.ar    1  UNL1        0.1101
     19 N          62.3803   84.5403   12.0578 N.ar    1  UNL1       -0.3484
     20 H          61.8620   84.9973   12.7590 H       1  UNL1        0.1661
     21 C          58.7875   86.6902    8.1087 C.3     1  UNL1        0.0725
     22 C          60.0530   85.9781    7.7328 C.ar    1  UNL1        0.1248
     23 O          60.1865   84.9095    6.6885 O.2     1  UNL1       -0.4546
     24 C          61.6232   84.4805    6.6454 C.ar    1  UNL1        0.1792
     25 C          62.3776   85.2838    7.6630 C.ar    1  UNL1        0.0448
     26 C          61.4071   86.2094    8.3350 C.ar    1  UNL1        0.0512
     27 O          62.7127   90.1458   12.6711 O.3     1  UNL1       -0.4712
     28 C          64.1069   90.6834   12.8008 C.3     1  UNL1        0.2211
     29 C          64.5820   91.7664   11.8780 C.3     1  UNL1        0.0996
     30 N          63.8970   91.9838   10.5614 N.3     1  UNL1       -0.3190
     31 H          64.3469   92.7542   10.0671 H       1  UNL1        0.1189
     32 H          62.9154   92.2100   10.7221 H       1  UNL1        0.1189
     33 C          65.7422   92.6319   12.2718 C.3     1  UNL1        0.0481
     34 C          66.6495   93.1948   11.2183 C.2     1  UNL1        0.0089
     35 C          67.9367   92.5862   10.7463 C.2     1  UNL1        0.1340
     36 CL         68.5425   91.3078   11.2449 Cl      1  UNL1       -0.0617
     37 N          68.5116   93.4804    9.6881 N.2     1  UNL1       -0.2383
     38 C          67.5798   94.6418    9.5061 C.2     1  UNL1        0.0640
     39 C          67.6306   95.8371    8.6015 C.3     1  UNL1        0.0718
     40 C          66.5305   96.8560    8.6425 C.2     1  UNL1       -0.0198
     41 C          65.3797   96.6795    9.5882 C.2     1  UNL1       -0.0042
     42 C          65.3289   95.4841   10.4929 C.2     1  UNL1        0.0006
     43 C          66.4290   94.4652   10.4518 C.2     1  UNL1        0.0123
@<TRIPOS>BOND
     1    21    22    1
     2    22    23   ar
     3    23    24   ar
     4    24    25   ar
     5    25    26   ar
     6    26     1    1
     7     1     2   ar
     8     2     3   ar
     9     3     4    1
    10     3     5   ar
    11     5    27    1
    12    27    28    1
    13    28    29    1
    14    29    30    1
    15    29    33    1
    16    33    34    1
    17    34    35    2
    18    35    36    1
    19    35    37    1
    20    37    38    2
    21    38    39    1
    22    39    40    1
    23    40    41    2
    24    41    42    1
    25    42    43    2
    26     5     6   ar
    27     6     7   ar
    28     7    10    1
    29    10    11   ar
    30    11    12   ar
    31    12    13   ar
    32    13    14   ar
    33    14    15   ar
    34    15    16   ar
    35    16    17    1
    36    16    18   ar
    37    18    19   ar
    38    26    22   ar
    39     7     1   ar
    40    19    10   ar
    41    43    34    1
    42    18    13    1
    43    43    38    1
    44     4     8    1
    45     4     9    1
    46    30    31    1
    47    30    32    1
    48    19    20    1
@<TRIPOS>MOLECULE
*****
 43 48 0 0 0
SMALL
GASTEIGER

@<TRIPOS>ATOM
      1 C          63.3667   83.8485   13.1992 C.ar    1  UNL1        0.0870
      2 N          63.7471   83.8693   14.6500 N.ar    1  UNL1       -0.2279
      3 C          63.9535   85.1784   15.3526 C.ar    1  UNL1        0.1596
      4 N          64.3338   85.1992   16.8034 N.pl3   1  UNL1       -0.3402
      5 C          63.7796   86.4668   14.6043 C.ar    1  UNL1        0.1696
      6 C          63.3992   86.4460   13.1534 C.ar    1  UNL1        0.0428
      7 C          63.1928   85.1368   12.4510 C.ar    1  UNL1        0.0380
      8 H          64.4480   84.3536   17.2945 H       1  UNL1        0.1438
      9 H          64.4693   86.0584   17.2645 H       1  UNL1        0.1438
     10 C          62.8125   85.1160   11.0001 C.ar    1  UNL1        0.0777
     11 C          63.6807   84.4015   10.0073 C.ar    1  UNL1        0.1176
     12 N          63.3004   84.3807    8.5565 N.ar    1  UNL1       -0.2209
     13 C          62.0519   85.0744    8.0984 C.ar    1  UNL1        0.2006
     14 N          61.4257   85.2231    6.7435 N.ar    1  UNL1       -0.1272
     15 N          60.1705   86.0295    6.8988 N.ar    1  UNL1       -0.1493
     16 C          60.0209   86.3792    8.3498 C.ar    1  UNL1        0.0995
     17 C          58.9045   87.1788    8.9534 C.3     1  UNL1        0.0557
     18 C          61.1836   85.7889    9.0912 C.ar    1  UNL1        0.1101
     19 N          61.5639   85.8097   10.5420 N.ar    1  UNL1       -0.3484
     20 H          60.9941   86.2787   11.1936 H       1  UNL1        0.1661
     21 C          61.4235   81.4231   14.1945 C.3     1  UNL1        0.0725
     22 C          62.2671   81.4245   12.9542 C.ar    1  UNL1        0.1248
     23 O          62.3656   80.3114   11.9536 O.2     1  UNL1       -0.4546
     24 C          63.3196   80.7383   10.8777 C.ar    1  UNL1        0.1792
     25 C          63.8108   82.1153   11.2133 C.ar    1  UNL1        0.0448
     26 C          63.1603   82.5394   12.4967 C.ar    1  UNL1        0.0512
     27 O          63.9860   87.7760   15.3068 O.3     1  UNL1       -0.4712
     28 C          63.5762   89.0566   14.6420 C.3     1  UNL1        0.2211
     29 C          64.2532   90.3432   15.0112 C.3     1  UNL1        0.0996
     30 N          63.5216   91.3689   15.8254 N.3     1  UNL1       -0.3190
     31 H          64.1277   92.1742   15.9819 H       1  UNL1        0.1189
     32 H          63.2558   90.9639   16.7230 H       1  UNL1        0.1189
     33 C          65.6617   90.6043   14.5662 C.3     1  UNL1        0.0481
     34 C          66.0702   91.9831   14.1397 C.2     1  UNL1        0.0089
     35 C          66.8113   92.9820   14.9781 C.2     1  UNL1        0.1340
     36 CL         67.2740   92.7775   16.3902 Cl      1  UNL1       -0.0617
     37 N          67.0083   94.2214   14.1565 N.2     1  UNL1       -0.2383
     38 C          66.3891   93.9885   12.8103 C.2     1  UNL1        0.0640
     39 C          66.2783   94.8573   11.5926 C.3     1  UNL1        0.0718
     40 C          65.5876   94.3427   10.3645 C.2     1  UNL1       -0.0198
     41 C          65.0078   92.9594   10.3541 C.2     1  UNL1       -0.0042
     42 C          65.1186   92.0905   11.5718 C.2     1  UNL1        0.0006
     43 C          65.8093   92.6051   12.7999 C.2     1  UNL1        0.0123
@<TRIPOS>BOND
     1    21    22    1
     2    22    23   ar
     3    23    24   ar
     4    24    25   ar
     5    25    26   ar
     6    26     1    1
     7     1     2   ar
     8     2     3   ar
     9     3     4    1
    10     3     5   ar
    11     5    27    1
    12    27    28    1
    13    28    29    1
    14    29    30    1
    15    29    33    1
    16    33    34    1
    17    34    35    2
    18    35    36    1
    19    35    37    1
    20    37    38    2
    21    38    39    1
    22    39    40    1
    23    40    41    2
    24    41    42    1
    25    42    43    2
    26     5     6   ar
    27     6     7   ar
    28     7    10    1
    29    10    11   ar
    30    11    12   ar
    31    12    13   ar
    32    13    14   ar
    33    14    15   ar
    34    15    16   ar
    35    16    17    1
    36    16    18   ar
    37    18    19   ar
    38    26    22   ar
    39     7     1   ar
    40    19    10   ar
    41    43    34    1
    42    18    13    1
    43    43    38    1
    44     4     8    1
    45     4     9    1
    46    30    31    1
    47    30    32    1
    48    19    20    1
@<TRIPOS>MOLECULE
*****
 43 48 0 0 0
SMALL
GASTEIGER

@<TRIPOS>ATOM
      1 C          61.6817   87.0768    9.2550 C.ar    1  UNL1        0.0870
      2 N          61.2685   88.5063    9.0660 N.ar    1  UNL1       -0.2279
      3 C          61.5247   89.5107   10.1503 C.ar    1  UNL1        0.1596
      4 N          61.1116   90.9402    9.9613 N.pl3   1  UNL1       -0.3402
      5 C          62.1942   89.0855   11.4236 C.ar    1  UNL1        0.1696
      6 C          62.6073   87.6560   11.6126 C.ar    1  UNL1        0.0428
      7 C          62.3511   86.6516   10.5283 C.ar    1  UNL1        0.0380
      8 H          60.6722   91.2193    9.1256 H       1  UNL1        0.1438
      9 H          61.2797   91.5994   10.6729 H       1  UNL1        0.1438
     10 C          62.7642   85.2221   10.7173 C.ar    1  UNL1        0.0777
     11 C          63.6284   84.5494    9.6923 C.ar    1  UNL1        0.1176
     12 N          64.0416   83.1198    9.8813 N.ar    1  UNL1       -0.2209
     13 C          63.5906   82.3630   11.0952 C.ar    1  UNL1        0.2006
     14 N          63.8369   80.9547   11.5489 N.ar    1  UNL1       -0.1272
     15 N          63.1250   80.7569   12.8543 N.ar    1  UNL1       -0.1493
     16 C          62.4387   82.0431   13.2074 C.ar    1  UNL1        0.0995
     17 C          61.6101   82.2928   14.4326 C.3     1  UNL1        0.0557
     18 C          62.7265   83.0357   12.1203 C.ar    1  UNL1        0.1101
     19 N          62.3133   84.4653   11.9313 N.ar    1  UNL1       -0.3484
     20 H          61.7461   84.9068   12.6040 H       1  UNL1        0.1661
     21 C          58.7959   86.4452    7.8684 C.3     1  UNL1        0.0725
     22 C          60.0990   85.7821    7.5334 C.ar    1  UNL1        0.1248
     23 O          60.3044   84.7123    6.5023 O.2     1  UNL1       -0.4546
     24 C          61.7579   84.3414    6.5024 C.ar    1  UNL1        0.1792
     25 C          62.4507   85.1820    7.5336 C.ar    1  UNL1        0.0448
     26 C          61.4255   86.0724    8.1708 C.ar    1  UNL1        0.0512
     27 O          62.4504   90.0899   12.5078 O.3     1  UNL1       -0.4712
     28 C          63.7886   90.7598   12.6085 C.3     1  UNL1        0.2211
     29 C          64.2358   91.7069   11.5346 C.3     1  UNL1        0.0996
     30 N          63.7248   91.5473   10.1334 N.3     1  UNL1       -0.3190
     31 H          64.1292   92.2713    9.5395 H       1  UNL1        0.1189
     32 H          62.7084   91.6334   10.1303 H       1  UNL1        0.1189
     33 C          65.1941   92.8136   11.8620 C.3     1  UNL1        0.0481
     34 C          66.5648   92.4905   12.3784 C.2     1  UNL1        0.0089
     35 C          67.7515   92.1027   11.5469 C.2     1  UNL1        0.1340
     36 CL         67.7757   91.9699   10.0530 Cl      1  UNL1       -0.0617
     37 N          68.9096   91.8711   12.4716 N.2     1  UNL1       -0.2383
     38 C          68.4387   92.1157   13.8746 C.2     1  UNL1        0.0640
     39 C          69.1423   92.0393   15.1971 C.3     1  UNL1        0.0718
     40 C          68.3967   92.3458   16.4621 C.2     1  UNL1       -0.0198
     41 C          66.9475   92.7287   16.4045 C.2     1  UNL1       -0.0042
     42 C          66.2439   92.8050   15.0820 C.2     1  UNL1        0.0006
     43 C          66.9895   92.4986   13.8170 C.2     1  UNL1        0.0123
@<TRIPOS>BOND
     1    21    22    1
     2    22    23   ar
     3    23    24   ar
     4    24    25   ar
     5    25    26   ar
     6    26     1    1
     7     1     2   ar
     8     2     3   ar
     9     3     4    1
    10     3     5   ar
    11     5    27    1
    12    27    28    1
    13    28    29    1
    14    29    30    1
    15    29    33    1
    16    33    34    1
    17    34    35    2
    18    35    36    1
    19    35    37    1
    20    37    38    2
    21    38    39    1
    22    39    40    1
    23    40    41    2
    24    41    42    1
    25    42    43    2
    26     5     6   ar
    27     6     7   ar
    28     7    10    1
    29    10    11   ar
    30    11    12   ar
    31    12    13   ar
    32    13    14   ar
    33    14    15   ar
    34    15    16   ar
    35    16    17    1
    36    16    18   ar
    37    18    19   ar
    38    26    22   ar
    39     7     1   ar
    40    19    10   ar
    41    43    34    1
    42    18    13    1
    43    43    38    1
    44     4     8    1
    45     4     9    1
    46    30    31    1
    47    30    32    1
    48    19    20    1
@<TRIPOS>MOLECULE
*****
 43 48 0 0 0
SMALL
GASTEIGER

@<TRIPOS>ATOM
      1 C          62.8333   84.1394   14.8368 C.ar    1  UNL1        0.0870
      2 N          62.8089   84.4138   16.3112 N.ar    1  UNL1       -0.2279
      3 C          63.1579   85.7788   16.8260 C.ar    1  UNL1        0.1596
      4 N          63.1335   86.0532   18.3004 N.pl3   1  UNL1       -0.3402
      5 C          63.5312   86.8695   15.8661 C.ar    1  UNL1        0.1696
      6 C          63.5556   86.5951   14.3917 C.ar    1  UNL1        0.0428
      7 C          63.2066   85.2300   13.8770 C.ar    1  UNL1        0.0380
      8 H          62.8885   85.3374   18.9304 H       1  UNL1        0.1438
      9 H          63.3625   86.9492   18.6383 H       1  UNL1        0.1438
     10 C          63.2310   84.9556   12.4025 C.ar    1  UNL1        0.0777
     11 C          64.1928   83.9499   11.8426 C.ar    1  UNL1        0.1176
     12 N          64.2172   83.6755   10.3681 N.ar    1  UNL1       -0.2209
     13 C          63.2798   84.4067    9.4535 C.ar    1  UNL1        0.2006
     14 N          63.0757   84.3468    7.9688 N.ar    1  UNL1       -0.1272
     15 N          61.9877   85.3155    7.6109 N.ar    1  UNL1       -0.1493
     16 C          61.5194   85.9740    8.8747 C.ar    1  UNL1        0.0995
     17 C          60.4418   87.0120    8.9809 C.3     1  UNL1        0.0557
     18 C          62.3180   85.4124   10.0135 C.ar    1  UNL1        0.1101
     19 N          62.2936   85.6868   11.4879 N.ar    1  UNL1       -0.3484
     20 H          61.6623   86.3469   11.8554 H       1  UNL1        0.1661
     21 C          64.9547   81.8280   13.9388 C.3     1  UNL1        0.0725
     22 C          63.4595   81.7119   13.9093 C.ar    1  UNL1        0.1248
     23 O          62.6768   80.5130   13.4619 O.2     1  UNL1       -0.4546
     24 C          61.2180   80.8346   13.5981 C.ar    1  UNL1        0.1792
     25 C          61.0991   82.2322   14.1297 C.ar    1  UNL1        0.0448
     26 C          62.4843   82.7744   14.3220 C.ar    1  UNL1        0.0512
     27 O          63.8802   88.2345   16.3809 O.3     1  UNL1       -0.4712
     28 C          63.1948   89.4452   15.8202 C.3     1  UNL1        0.2211
     29 C          63.9390   90.7425   15.7053 C.3     1  UNL1        0.0996
     30 N          63.5254   91.9206   16.5365 N.3     1  UNL1       -0.3190
     31 H          64.1358   92.7119   16.3322 H       1  UNL1        0.1189
     32 H          63.5984   91.6814   17.5254 H       1  UNL1        0.1189
     33 C          65.0969   90.8616   14.7591 C.3     1  UNL1        0.0481
     34 C          64.8818   91.3958   13.3741 C.2     1  UNL1        0.0089
     35 C          65.5408   92.6073   12.7841 C.2     1  UNL1        0.1340
     36 CL         66.5306   93.4973   13.4756 Cl      1  UNL1       -0.0617
     37 N          65.0362   92.7725   11.3812 N.2     1  UNL1       -0.2383
     38 C          64.0653   91.6631   11.1042 C.2     1  UNL1        0.0640
     39 C          63.2558   91.3178    9.8895 C.3     1  UNL1        0.0718
     40 C          62.3510   90.1216    9.9065 C.2     1  UNL1       -0.0198
     41 C          62.2556   89.2707   11.1382 C.2     1  UNL1       -0.0042
     42 C          63.0650   89.6161   12.3528 C.2     1  UNL1        0.0006
     43 C          63.9699   90.8122   12.3358 C.2     1  UNL1        0.0123
@<TRIPOS>BOND
     1    21    22    1
     2    22    23   ar
     3    23    24   ar
     4    24    25   ar
     5    25    26   ar
     6    26     1    1
     7     1     2   ar
     8     2     3   ar
     9     3     4    1
    10     3     5   ar
    11     5    27    1
    12    27    28    1
    13    28    29    1
    14    29    30    1
    15    29    33    1
    16    33    34    1
    17    34    35    2
    18    35    36    1
    19    35    37    1
    20    37    38    2
    21    38    39    1
    22    39    40    1
    23    40    41    2
    24    41    42    1
    25    42    43    2
    26     5     6   ar
    27     6     7   ar
    28     7    10    1
    29    10    11   ar
    30    11    12   ar
    31    12    13   ar
    32    13    14   ar
    33    14    15   ar
    34    15    16   ar
    35    16    17    1
    36    16    18   ar
    37    18    19   ar
    38    26    22   ar
    39     7     1   ar
    40    19    10   ar
    41    43    34    1
    42    18    13    1
    43    43    38    1
    44     4     8    1
    45     4     9    1
    46    30    31    1
    47    30    32    1
    48    19    20    1
