@<TRIPOS>MOLECULE
*****
 40 43 0 0 0
SMALL
GASTEIGER

@<TRIPOS>ATOM
      1 C          62.4903   89.2197   12.6934 C.2     1  UNL1        0.2246
      2 O          63.6380   88.2667   12.8504 O.2     1  UNL1       -0.2750
      3 N          62.6779   90.6763   12.9984 N.am    1  UNL1       -0.3022
      4 H          61.9246   91.3018   12.8954 H       1  UNL1        0.1497
      5 C          64.0132   91.1800   13.4606 C.3     1  UNL1        0.0938
      6 C          64.3935   91.0773   14.9079 C.3     1  UNL1        0.0245
      7 C          65.7288   91.5809   15.3699 C.3     1  UNL1        0.0067
      8 C          66.6836   92.1872   14.3846 C.3     1  UNL1        0.0261
      9 C          66.3032   92.2898   12.9374 C.ar    1  UNL1       -0.0249
     10 C          67.2580   92.8961   11.9521 C.ar    1  UNL1       -0.0075
     11 C          66.8777   92.9988   10.5048 C.ar    1  UNL1       -0.0067
     12 C          65.5424   92.4952   10.0427 C.ar    1  UNL1       -0.0032
     13 C          64.5875   91.8889   11.0279 C.ar    1  UNL1       -0.0033
     14 C          64.9680   91.7862   12.4753 C.ar    1  UNL1       -0.0085
     15 C          67.8325   93.6051    9.5196 C.3     1  UNL1        0.0956
     16 N          68.0106   95.0935    9.4662 N.3     1  UNL1       -0.2959
     17 H          68.7532   95.2772    8.7916 H       1  UNL1        0.1235
     18 C          66.8560   95.9740    9.0897 C.3     1  UNL1        0.0423
     19 C          66.8647   95.3938    7.7065 C.3     1  UNL1        0.0158
     20 C          66.8474   96.5541   10.4730 C.3     1  UNL1        0.0158
     21 C          65.7015   96.8545    8.7132 C.3     1  UNL1        0.0158
     22 C          61.1551   88.7161   12.2313 C.3     1  UNL1        0.1120
     23 N          61.1021   87.6770    9.8506 N.3     1  UNL1       -0.1459
     24 C          60.7266   87.7688    8.4013 C.3     1  UNL1        0.1175
     25 C          60.0284   88.9912    7.8833 C.3     1  UNL1        0.1086
     26 N          59.7058   90.1219    8.8147 N.am    1  UNL1       -0.3018
     27 C          60.0814   90.0302   10.2640 C.2     1  UNL1        0.2392
     28 O          59.7588   91.1610   11.1954 O.2     1  UNL1       -0.2736
     29 C          60.7795   88.8078   10.7820 C.3     1  UNL1        0.1645
     30 H          59.2476   90.9242    8.4748 H       1  UNL1        0.1495
     31 S          61.8003   86.4547   10.3685 S.O2    1  UNL1        0.0637
     32 O          62.7243   86.4819    9.1873 O.2     1  UNL1       -0.1528
     33 O          60.8762   86.4274   11.5498 O.2     1  UNL1       -0.1528
     34 C          64.5929   81.5650   12.4403 C.3     1  UNL1        0.0310
     35 C          63.8947   82.7874   11.9224 C.ar    1  UNL1       -0.0218
     36 C          63.1304   83.6701   12.8639 C.ar    1  UNL1       -0.0029
     37 C          62.4322   84.8926   12.3460 C.ar    1  UNL1        0.0196
     38 C          62.4984   85.2323   10.8865 C.ar    1  UNL1        0.1222
     39 C          63.2628   84.3495    9.9449 C.ar    1  UNL1        0.0196
     40 C          63.9609   83.1271   10.4629 C.ar    1  UNL1       -0.0029
@<TRIPOS>BOND
     1    34    35    1
     2    35    36   ar
     3    36    37   ar
     4    37    38   ar
     5    38    31    1
     6    31    32    2
     7    31    33    2
     8    31    23    1
     9    23    24    1
    10    24    25    1
    11    25    26    1
    12    26    27   am
    13    27    28    2
    14    27    29    1
    15    29    22    1
    16    22     1    1
    17     1     2    2
    18     1     3   am
    19     5     3    1
    20     5     6    1
    21     6     7    1
    22     7     8    1
    23     8     9    1
    24     9    10   ar
    25    10    11   ar
    26    11    15    1
    27    15    16    1
    28    16    18    1
    29    18    19    1
    30    18    20    1
    31    18    21    1
    32    11    12   ar
    33    12    13   ar
    34    13    14   ar
    35    38    39   ar
    36    39    40   ar
    37    40    35   ar
    38    29    23    1
    39    14     5    1
    40    14     9   ar
    41    26    30    1
    42     3     4    1
    43    16    17    1
@<TRIPOS>MOLECULE
*****
 40 43 0 0 0
SMALL
GASTEIGER

@<TRIPOS>ATOM
      1 C          62.9420   90.7930   11.2513 C.2     1  UNL1        0.2246
      2 O          63.5396   90.7444    9.8763 O.2     1  UNL1       -0.2750
      3 N          61.9031   89.7885   11.6535 N.am    1  UNL1       -0.3022
      4 H          61.5109   89.8204   12.5559 H       1  UNL1        0.1497
      5 C          61.4618   88.7355   10.6806 C.3     1  UNL1        0.0938
      6 C          60.5818   89.1050    9.5235 C.3     1  UNL1        0.0245
      7 C          60.1405   88.0520    8.5507 C.3     1  UNL1        0.0067
      8 C          60.5792   86.6294    8.7351 C.3     1  UNL1        0.0261
      9 C          61.4592   86.2599    9.8922 C.ar    1  UNL1       -0.0249
     10 C          61.8979   84.8374   10.0766 C.ar    1  UNL1       -0.0075
     11 C          62.7779   84.4679   11.2338 C.ar    1  UNL1       -0.0067
     12 C          63.2192   85.5210   12.2066 C.ar    1  UNL1       -0.0032
     13 C          62.7805   86.9435   12.0222 C.ar    1  UNL1       -0.0033
     14 C          61.9005   87.3130   10.8650 C.ar    1  UNL1       -0.0085
     15 C          63.2165   83.0454   11.4181 C.3     1  UNL1        0.0956
     16 N          63.4737   82.5125   12.7965 N.3     1  UNL1       -0.2959
     17 H          63.6554   83.3185   13.3946 H       1  UNL1        0.1235
     18 C          62.4300   81.6865   13.4881 C.3     1  UNL1        0.0423
     19 C          62.2510   82.7690   14.5109 C.3     1  UNL1        0.0158
     20 C          62.6090   80.6040   12.4653 C.3     1  UNL1        0.0158
     21 C          61.3863   80.8605   14.1797 C.3     1  UNL1        0.0158
     22 C          63.3834   91.8460   12.2241 C.3     1  UNL1        0.1120
     23 N          65.6332   91.4074   13.4472 N.3     1  UNL1       -0.1459
     24 C          67.0937   91.6995   13.6248 C.3     1  UNL1        0.1175
     25 C          67.7649   92.7224   12.7569 C.3     1  UNL1        0.1086
     26 N          66.9756   93.4532   11.7115 N.am    1  UNL1       -0.3018
     27 C          65.5151   93.1610   11.5339 C.2     1  UNL1        0.2392
     28 O          64.7258   93.8918   10.4884 O.2     1  UNL1       -0.2736
     29 C          64.8439   92.1382   12.4017 C.3     1  UNL1        0.1645
     30 H          67.4162   94.1245   11.1419 H       1  UNL1        0.1495
     31 S          64.9620   90.3845   14.3151 S.O2    1  UNL1        0.0637
     32 O          64.7406   89.5119   13.1153 O.2     1  UNL1       -0.1528
     33 O          65.1835   91.2571   15.5148 O.2     1  UNL1       -0.1528
     34 C          62.2771   86.2930   17.7864 C.3     1  UNL1        0.0310
     35 C          62.9483   87.3159   16.9186 C.ar    1  UNL1       -0.0218
     36 C          63.8024   86.8774   15.7661 C.ar    1  UNL1       -0.0029
     37 C          64.4736   87.9003   14.8982 C.ar    1  UNL1        0.0196
     38 C          64.2908   89.3616   15.1829 C.ar    1  UNL1        0.1222
     39 C          63.4367   89.8001   16.3354 C.ar    1  UNL1        0.0196
     40 C          62.7655   88.7772   17.2033 C.ar    1  UNL1       -0.0029
@<TRIPOS>BOND
     1    34    35    1
     2    35    36   ar
     3    36    37   ar
     4    37    38   ar
     5    38    31    1
     6    31    32    2
     7    31    33    2
     8    31    23    1
     9    23    24    1
    10    24    25    1
    11    25    26    1
    12    26    27   am
    13    27    28    2
    14    27    29    1
    15    29    22    1
    16    22     1    1
    17     1     2    2
    18     1     3   am
    19     5     3    1
    20     5     6    1
    21     6     7    1
    22     7     8    1
    23     8     9    1
    24     9    10   ar
    25    10    11   ar
    26    11    15    1
    27    15    16    1
    28    16    18    1
    29    18    19    1
    30    18    20    1
    31    18    21    1
    32    11    12   ar
    33    12    13   ar
    34    13    14   ar
    35    38    39   ar
    36    39    40   ar
    37    40    35   ar
    38    29    23    1
    39    14     5    1
    40    14     9   ar
    41    26    30    1
    42     3     4    1
    43    16    17    1
@<TRIPOS>MOLECULE
*****
 40 43 0 0 0
SMALL
GASTEIGER

@<TRIPOS>ATOM
      1 C          63.3806   86.8773   13.4744 C.2     1  UNL1        0.2246
      2 O          64.4801   86.6309   14.4646 O.2     1  UNL1       -0.2750
      3 N          63.0754   88.2755   13.0251 N.am    1  UNL1       -0.3022
      4 H          62.3538   88.4373   12.3752 H       1  UNL1        0.1497
      5 C          63.8698   89.4273   13.5659 C.3     1  UNL1        0.0938
      6 C          64.2955   89.4352   15.0042 C.3     1  UNL1        0.0245
      7 C          65.0898   90.5869   15.5449 C.3     1  UNL1        0.0067
      8 C          65.4585   91.7308   14.6474 C.3     1  UNL1        0.0261
      9 C          65.0328   91.7230   13.2091 C.ar    1  UNL1       -0.0249
     10 C          65.4014   92.8669   12.3116 C.ar    1  UNL1       -0.0075
     11 C          64.9757   92.8591   10.8734 C.ar    1  UNL1       -0.0067
     12 C          64.1813   91.7073   10.3325 C.ar    1  UNL1       -0.0032
     13 C          63.8127   90.5634   11.2301 C.ar    1  UNL1       -0.0033
     14 C          64.2384   90.5713   12.6684 C.ar    1  UNL1       -0.0085
     15 C          65.3443   94.0030    9.9758 C.3     1  UNL1        0.0956
     16 N          66.6718   94.6831   10.1344 N.3     1  UNL1       -0.2959
     17 H          67.3841   93.9551   10.0785 H       1  UNL1        0.1235
     18 C          67.0804   95.7630    9.1769 C.3     1  UNL1        0.0423
     19 C          67.4668   94.7224    8.1680 C.3     1  UNL1        0.0158
     20 C          66.6940   96.8037   10.1857 C.3     1  UNL1        0.0158
     21 C          67.4890   96.8429    8.2194 C.3     1  UNL1        0.0158
     22 C          62.5863   85.7256   12.9337 C.3     1  UNL1        0.1120
     23 N          63.0997   84.5701   10.6640 N.3     1  UNL1       -0.1459
     24 C          63.7843   83.4880    9.8828 C.3     1  UNL1        0.1175
     25 C          64.6401   82.4792   10.5900 C.3     1  UNL1        0.1086
     26 N          64.8112   82.5526   12.0784 N.am    1  UNL1       -0.3018
     27 C          64.1266   83.6347   12.8596 C.2     1  UNL1        0.2392
     28 O          64.2978   83.7081   14.3481 O.2     1  UNL1       -0.2736
     29 C          63.2709   84.6435   12.1525 C.3     1  UNL1        0.1645
     30 H          65.3729   81.8905   12.5425 H       1  UNL1        0.1495
     31 S          62.2440   85.5789    9.9569 S.O2    1  UNL1        0.0637
     32 O          61.3246   85.6290   11.1410 O.2     1  UNL1       -0.1528
     33 O          63.1634   85.5287    8.7728 O.2     1  UNL1       -0.1528
     34 C          58.8210   89.6139    7.1283 C.3     1  UNL1        0.0310
     35 C          59.6768   88.6052    7.8354 C.ar    1  UNL1       -0.0218
     36 C          59.6361   87.1644    7.4201 C.ar    1  UNL1       -0.0029
     37 C          60.4918   86.1556    8.1273 C.ar    1  UNL1        0.0196
     38 C          61.3883   86.5876    9.2497 C.ar    1  UNL1        0.1222
     39 C          61.4289   88.0285    9.6650 C.ar    1  UNL1        0.0196
     40 C          60.5732   89.0372    8.9578 C.ar    1  UNL1       -0.0029
@<TRIPOS>BOND
     1    34    35    1
     2    35    36   ar
     3    36    37   ar
     4    37    38   ar
     5    38    31    1
     6    31    32    2
     7    31    33    2
     8    31    23    1
     9    23    24    1
    10    24    25    1
    11    25    26    1
    12    26    27   am
    13    27    28    2
    14    27    29    1
    15    29    22    1
    16    22     1    1
    17     1     2    2
    18     1     3   am
    19     5     3    1
    20     5     6    1
    21     6     7    1
    22     7     8    1
    23     8     9    1
    24     9    10   ar
    25    10    11   ar
    26    11    15    1
    27    15    16    1
    28    16    18    1
    29    18    19    1
    30    18    20    1
    31    18    21    1
    32    11    12   ar
    33    12    13   ar
    34    13    14   ar
    35    38    39   ar
    36    39    40   ar
    37    40    35   ar
    38    29    23    1
    39    14     5    1
    40    14     9   ar
    41    26    30    1
    42     3     4    1
    43    16    17    1
@<TRIPOS>MOLECULE
*****
 40 43 0 0 0
SMALL
GASTEIGER

@<TRIPOS>ATOM
      1 C          62.2350   89.0908   12.3480 C.2     1  UNL1        0.2246
      2 O          63.5650   88.6571   11.8066 O.2     1  UNL1       -0.2750
      3 N          62.1637   90.1741   13.3831 N.am    1  UNL1       -0.3022
      4 H          61.2908   90.4587   13.7384 H       1  UNL1        0.1497
      5 C          63.4225   90.8237   13.8768 C.3     1  UNL1        0.0938
      6 C          63.8810   90.5956   15.2866 C.3     1  UNL1        0.0245
      7 C          65.1397   91.2452   15.7803 C.3     1  UNL1        0.0067
      8 C          65.9398   92.1228   14.8640 C.3     1  UNL1        0.0261
      9 C          65.4813   92.3509   13.4542 C.ar    1  UNL1       -0.0249
     10 C          66.2815   93.2286   12.5380 C.ar    1  UNL1       -0.0075
     11 C          65.8230   93.4566   11.1281 C.ar    1  UNL1       -0.0067
     12 C          64.5642   92.8070   10.6344 C.ar    1  UNL1       -0.0032
     13 C          63.7641   91.9294   11.5507 C.ar    1  UNL1       -0.0033
     14 C          64.2227   91.7013   12.9606 C.ar    1  UNL1       -0.0085
     15 C          66.6232   94.3343   10.2119 C.3     1  UNL1        0.0956
     16 N          68.0820   94.0604    9.9958 N.3     1  UNL1       -0.2959
     17 H          68.4832   93.8618   10.9123 H       1  UNL1        0.1235
     18 C          68.5094   92.9474    9.0856 C.3     1  UNL1        0.0423
     19 C          68.2583   93.8246    7.8950 C.3     1  UNL1        0.0158
     20 C          68.7605   92.0702   10.2761 C.3     1  UNL1        0.0158
     21 C          68.9368   91.8344    8.1753 C.3     1  UNL1        0.0158
     22 C          60.9764   88.4412   11.8543 C.3     1  UNL1        0.1120
     23 N          61.0632   87.2939    9.5249 N.3     1  UNL1       -0.1459
     24 C          60.7399   87.3016    8.0602 C.3     1  UNL1        0.1175
     25 C          60.0065   88.4645    7.4601 C.3     1  UNL1        0.1086
     26 N          59.5964   89.6195    8.3248 N.am    1  UNL1       -0.3018
     27 C          59.9197   89.6117    9.7896 C.2     1  UNL1        0.2392
     28 O          59.5096   90.7668   10.6543 O.2     1  UNL1       -0.2736
     29 C          60.6531   88.4490   10.3896 C.3     1  UNL1        0.1645
     30 H          59.1150   90.3827    7.9310 H       1  UNL1        0.1495
     31 S          61.7966   86.1311   10.1249 S.O2    1  UNL1        0.0637
     32 O          60.9018   86.1873   11.3275 O.2     1  UNL1       -0.1528
     33 O          62.6913   86.0749    8.9224 O.2     1  UNL1       -0.1528
     34 C          64.7302   81.4800   12.5250 C.3     1  UNL1        0.0310
     35 C          63.9968   82.6427   11.9250 C.ar    1  UNL1       -0.0218
     36 C          63.1610   83.5327   12.7964 C.ar    1  UNL1       -0.0029
     37 C          62.4276   84.6956   12.1964 C.ar    1  UNL1        0.0196
     38 C          62.5300   84.9683   10.7249 C.ar    1  UNL1        0.1222
     39 C          63.3657   84.0782    9.8535 C.ar    1  UNL1        0.0196
     40 C          64.0991   82.9155   10.4535 C.ar    1  UNL1       -0.0029
@<TRIPOS>BOND
     1    34    35    1
     2    35    36   ar
     3    36    37   ar
     4    37    38   ar
     5    38    31    1
     6    31    32    2
     7    31    33    2
     8    31    23    1
     9    23    24    1
    10    24    25    1
    11    25    26    1
    12    26    27   am
    13    27    28    2
    14    27    29    1
    15    29    22    1
    16    22     1    1
    17     1     2    2
    18     1     3   am
    19     5     3    1
    20     5     6    1
    21     6     7    1
    22     7     8    1
    23     8     9    1
    24     9    10   ar
    25    10    11   ar
    26    11    15    1
    27    15    16    1
    28    16    18    1
    29    18    19    1
    30    18    20    1
    31    18    21    1
    32    11    12   ar
    33    12    13   ar
    34    13    14   ar
    35    38    39   ar
    36    39    40   ar
    37    40    35   ar
    38    29    23    1
    39    14     5    1
    40    14     9   ar
    41    26    30    1
    42     3     4    1
    43    16    17    1
