@<TRIPOS>MOLECULE
*****
 39 44 0 0 0
SMALL
GASTEIGER

@<TRIPOS>ATOM
      1 O          62.0881   86.1419   18.0794 O.2     1  UNL1       -0.2749
      2 C          62.7500   86.0611   16.7358 C.2     1  UNL1        0.2252
      3 N          63.2798   87.3042   16.0848 N.am    1  UNL1       -0.2794
      4 C          63.1476   88.6282   16.7773 C.3     1  UNL1        0.0953
      5 C          63.6774   89.8714   16.1263 C.3     1  UNL1        0.0442
      6 C          64.3394   89.7906   14.7826 C.3     1  UNL1        0.0933
      7 C          64.4716   88.4667   14.0902 C.3     1  UNL1        0.0442
      8 C          63.9418   87.2235   14.7412 C.3     1  UNL1        0.0953
      9 N          64.8692   91.0338   14.1316 N.ar    1  UNL1       -0.2817
     10 C          64.4151   91.6047   12.8209 C.ar    1  UNL1        0.3317
     11 O          63.3515   91.0328   11.9312 O.2     1  UNL1       -0.2463
     12 N          65.2113   92.8481   12.5563 N.ar    1  UNL1       -0.2758
     13 C          66.1575   93.0455   13.7033 C.ar    1  UNL1        0.0800
     14 C          67.1844   94.1015   13.9870 C.ar    1  UNL1        0.0188
     15 C          67.9997   94.0362   15.2444 C.ar    1  UNL1        0.0016
     16 C          67.7882   92.9148   16.2180 C.ar    1  UNL1        0.0016
     17 C          66.7614   91.8589   15.9343 C.ar    1  UNL1        0.0188
     18 C          65.9461   91.9242   14.6769 C.ar    1  UNL1        0.0796
     19 C          65.0838   93.7378   11.3554 C.3     1  UNL1        0.1373
     20 C          66.2102   93.8327   10.3693 C.ar    1  UNL1        0.0014
     21 C          67.1085   92.6534   10.1409 C.ar    1  UNL1       -0.0023
     22 C          68.2349   92.7483    9.1549 C.ar    1  UNL1        0.0006
     23 C          68.4629   94.0226    8.3972 C.ar    1  UNL1        0.0114
     24 C          67.5647   95.2020    8.6256 C.ar    1  UNL1        0.0574
     25 CL         67.7927   96.4763    7.8679 Cl      1  UNL1       -0.0823
     26 C          66.4383   95.1071    9.6116 C.ar    1  UNL1        0.0090
     27 C          62.8822   84.7371   16.0433 C.3     1  UNL1        0.0795
     28 C          61.6775   84.0888   15.4282 C.3     1  UNL1        0.0264
     29 C          61.8097   82.7649   14.7357 C.3     1  UNL1        0.0729
     30 N          63.1467   82.0892   14.6582 N.3     1  UNL1       -0.2689
     31 C          64.3515   82.7375   15.2733 C.3     1  UNL1        0.0729
     32 C          64.2193   84.0615   15.9658 C.3     1  UNL1        0.0264
     33 C          63.2789   80.7652   13.9657 C.3     1  UNL1        0.0992
     34 C          63.1987   80.6899   12.4697 C.ar    1  UNL1       -0.0031
     35 C          63.5578   81.8857   11.6384 C.ar    1  UNL1        0.0178
     36 C          63.4777   81.8105   10.1424 C.ar    1  UNL1        0.0986
     37 N          63.0385   80.5396    9.4778 N.ar    1  UNL1       -0.2423
     38 C          62.6795   79.3437   10.3092 C.ar    1  UNL1        0.0986
     39 C          62.7596   79.4189   11.8051 C.ar    1  UNL1        0.0178
@<TRIPOS>BOND
     1     1     2    2
     2     2    27    1
     3    27    28    1
     4    28    29    1
     5    29    30    1
     6    30    33    1
     7    33    34    1
     8    34    35   ar
     9    35    36   ar
    10    36    37   ar
    11    37    38   ar
    12    38    39   ar
    13    30    31    1
    14    31    32    1
    15     2     3   am
    16     3     4    1
    17     4     5    1
    18     5     6    1
    19     6     9    1
    20     9    10   ar
    21    10    11    2
    22    10    12   ar
    23    12    19    1
    24    19    20    1
    25    20    21   ar
    26    21    22   ar
    27    22    23   ar
    28    23    24   ar
    29    24    25    1
    30    24    26   ar
    31    12    13   ar
    32    13    14   ar
    33    14    15   ar
    34    15    16   ar
    35    16    17   ar
    36    17    18   ar
    37     6     7    1
    38     7     8    1
    39    32    27    1
    40     8     3    1
    41    39    34   ar
    42    18     9   ar
    43    26    20   ar
    44    18    13   ar
@<TRIPOS>MOLECULE
*****
 39 44 0 0 0
SMALL
GASTEIGER

@<TRIPOS>ATOM
      1 O          58.5829   87.4101    7.0379 O.2     1  UNL1       -0.2749
      2 C          59.4174   88.6256    7.3137 C.2     1  UNL1        0.2252
      3 N          60.2322   88.7064    8.5705 N.am    1  UNL1       -0.2794
      4 C          60.2124   87.5718    9.5515 C.3     1  UNL1        0.0953
      5 C          61.0272   87.6526   10.8083 C.3     1  UNL1        0.0442
      6 C          61.8618   88.8682   11.0842 C.3     1  UNL1        0.0933
      7 C          61.8816   90.0027   10.1033 C.3     1  UNL1        0.0442
      8 C          61.0668   89.9219    8.8464 C.3     1  UNL1        0.0953
      9 N          62.6766   88.9490   12.3410 N.ar    1  UNL1       -0.2817
     10 C          63.0072   90.2008   13.0985 C.ar    1  UNL1        0.3317
     11 O          62.5811   91.5915   12.7321 O.2     1  UNL1       -0.2463
     12 N          63.8387   89.8176   14.2866 N.ar    1  UNL1       -0.2758
     13 C          64.0220   88.3290   14.2635 C.ar    1  UNL1        0.0800
     14 C          64.7502   87.3930   15.1820 C.ar    1  UNL1        0.0188
     15 C          64.7601   85.9202   14.8981 C.ar    1  UNL1        0.0016
     16 C          64.0418   85.3834   13.6956 C.ar    1  UNL1        0.0016
     17 C          63.3137   86.3193   12.7771 C.ar    1  UNL1        0.0188
     18 C          63.3038   87.7922   13.0610 C.ar    1  UNL1        0.0796
     19 C          64.3902   90.7579   15.3170 C.3     1  UNL1        0.1373
     20 C          65.6976   91.4525   15.0753 C.ar    1  UNL1        0.0014
     21 C          66.2358   92.4134   16.0936 C.ar    1  UNL1       -0.0023
     22 C          67.5432   93.1080   15.8520 C.ar    1  UNL1        0.0006
     23 C          68.3123   92.8416   14.5920 C.ar    1  UNL1        0.0114
     24 C          67.7741   91.8806   13.5738 C.ar    1  UNL1        0.0574
     25 CL         68.5432   91.6142   12.3138 Cl      1  UNL1       -0.0823
     26 C          66.4667   91.1860   13.8154 C.ar    1  UNL1        0.0090
     27 C          59.4372   89.7602    6.3328 C.3     1  UNL1        0.0795
     28 C          58.1664   90.4819    5.9951 C.3     1  UNL1        0.0264
     29 C          58.1862   91.6165    5.0141 C.3     1  UNL1        0.0729
     30 N          59.4768   92.0294    4.3709 N.3     1  UNL1       -0.2689
     31 C          60.7478   91.3077    4.7087 C.3     1  UNL1        0.0729
     32 C          60.7280   90.1731    5.6896 C.3     1  UNL1        0.0264
     33 C          59.4966   93.1641    3.3900 C.3     1  UNL1        0.0992
     34 C          60.2348   93.0207    2.0922 C.ar    1  UNL1       -0.0031
     35 C          61.7236   93.1996    2.0525 C.ar    1  UNL1        0.0178
     36 C          62.4619   93.0563    0.7547 C.ar    1  UNL1        0.0986
     37 N          61.7114   92.7341   -0.5035 N.ar    1  UNL1       -0.2423
     38 C          60.2227   92.5552   -0.4638 C.ar    1  UNL1        0.0986
     39 C          59.4844   92.6985    0.8340 C.ar    1  UNL1        0.0178
@<TRIPOS>BOND
     1     1     2    2
     2     2    27    1
     3    27    28    1
     4    28    29    1
     5    29    30    1
     6    30    33    1
     7    33    34    1
     8    34    35   ar
     9    35    36   ar
    10    36    37   ar
    11    37    38   ar
    12    38    39   ar
    13    30    31    1
    14    31    32    1
    15     2     3   am
    16     3     4    1
    17     4     5    1
    18     5     6    1
    19     6     9    1
    20     9    10   ar
    21    10    11    2
    22    10    12   ar
    23    12    19    1
    24    19    20    1
    25    20    21   ar
    26    21    22   ar
    27    22    23   ar
    28    23    24   ar
    29    24    25    1
    30    24    26   ar
    31    12    13   ar
    32    13    14   ar
    33    14    15   ar
    34    15    16   ar
    35    16    17   ar
    36    17    18   ar
    37     6     7    1
    38     7     8    1
    39    32    27    1
    40     8     3    1
    41    39    34   ar
    42    18     9   ar
    43    26    20   ar
    44    18    13   ar
@<TRIPOS>MOLECULE
*****
 39 44 0 0 0
SMALL
GASTEIGER

@<TRIPOS>ATOM
      1 O          57.9552   87.9636    6.7957 O.2     1  UNL1       -0.2749
      2 C          59.0396   88.9729    7.0311 C.2     1  UNL1        0.2252
      3 N          59.9385   88.8432    8.2249 N.am    1  UNL1       -0.2794
      4 C          59.7531   87.7042    9.1832 C.3     1  UNL1        0.0953
      5 C          60.6520   87.5744   10.3769 C.3     1  UNL1        0.0442
      6 C          61.7365   88.5838   10.6124 C.3     1  UNL1        0.0933
      7 C          61.9219   89.7227    9.6542 C.3     1  UNL1        0.0442
      8 C          61.0229   89.8524    8.4604 C.3     1  UNL1        0.0953
      9 N          62.6354   88.4540   11.8062 N.ar    1  UNL1       -0.2817
     10 C          62.9319   87.1875   12.5531 C.ar    1  UNL1        0.3317
     11 O          62.3816   85.8282   12.2374 O.2     1  UNL1       -0.2463
     12 N          63.8754   87.5188   13.6711 N.ar    1  UNL1       -0.2758
     13 C          64.1620   88.9901   13.6153 C.ar    1  UNL1        0.0800
     14 C          65.0218   89.8782   14.4650 C.ar    1  UNL1        0.0188
     15 C          65.1151   91.3443   14.1621 C.ar    1  UNL1        0.0016
     16 C          64.3487   91.9223   13.0095 C.ar    1  UNL1        0.0016
     17 C          63.4890   91.0342   12.1597 C.ar    1  UNL1        0.0188
     18 C          63.3956   89.5681   12.4626 C.ar    1  UNL1        0.0796
     19 C          64.4343   86.5491   14.6698 C.3     1  UNL1        0.1373
     20 C          63.9808   85.1192   14.6617 C.ar    1  UNL1        0.0014
     21 C          62.9310   84.6599   15.6296 C.ar    1  UNL1       -0.0023
     22 C          62.4775   83.2301   15.6216 C.ar    1  UNL1        0.0006
     23 C          63.0738   82.2597   14.6455 C.ar    1  UNL1        0.0114
     24 C          64.1236   82.7190   13.6776 C.ar    1  UNL1        0.0574
     25 CL         64.7199   81.7486   12.7015 Cl      1  UNL1       -0.0823
     26 C          64.5771   84.1488   13.6856 C.ar    1  UNL1        0.0090
     27 C          59.2250   90.1119    6.0728 C.3     1  UNL1        0.0795
     28 C          58.0439   90.9310    5.6439 C.3     1  UNL1        0.0264
     29 C          58.2294   92.0700    4.6856 C.3     1  UNL1        0.0729
     30 N          59.5960   92.3899    4.1563 N.3     1  UNL1       -0.2689
     31 C          60.7771   91.5707    4.5853 C.3     1  UNL1        0.0729
     32 C          60.5917   90.4317    5.5435 C.3     1  UNL1        0.0264
     33 C          59.7814   93.5288    3.1980 C.3     1  UNL1        0.0992
     34 C          60.3579   93.2771    1.8363 C.ar    1  UNL1       -0.0031
     35 C          59.4735   92.7948    0.7250 C.ar    1  UNL1        0.0178
     36 C          60.0499   92.5430   -0.6368 C.ar    1  UNL1        0.0986
     37 N          61.5108   92.7736   -0.8871 N.ar    1  UNL1       -0.2423
     38 C          62.3952   93.2559    0.2243 C.ar    1  UNL1        0.0986
     39 C          61.8188   93.5077    1.5860 C.ar    1  UNL1        0.0178
@<TRIPOS>BOND
     1     1     2    2
     2     2    27    1
     3    27    28    1
     4    28    29    1
     5    29    30    1
     6    30    33    1
     7    33    34    1
     8    34    35   ar
     9    35    36   ar
    10    36    37   ar
    11    37    38   ar
    12    38    39   ar
    13    30    31    1
    14    31    32    1
    15     2     3   am
    16     3     4    1
    17     4     5    1
    18     5     6    1
    19     6     9    1
    20     9    10   ar
    21    10    11    2
    22    10    12   ar
    23    12    19    1
    24    19    20    1
    25    20    21   ar
    26    21    22   ar
    27    22    23   ar
    28    23    24   ar
    29    24    25    1
    30    24    26   ar
    31    12    13   ar
    32    13    14   ar
    33    14    15   ar
    34    15    16   ar
    35    16    17   ar
    36    17    18   ar
    37     6     7    1
    38     7     8    1
    39    32    27    1
    40     8     3    1
    41    39    34   ar
    42    18     9   ar
    43    26    20   ar
    44    18    13   ar
@<TRIPOS>MOLECULE
*****
 39 44 0 0 0
SMALL
GASTEIGER

@<TRIPOS>ATOM
      1 O          56.8425   90.0841    6.2643 O.2     1  UNL1       -0.2749
      2 C          58.3406   90.0977    6.3378 C.2     1  UNL1        0.2252
      3 N          59.1338   90.8755    5.3300 N.am    1  UNL1       -0.2794
      4 C          58.4290   91.6396    4.2487 C.3     1  UNL1        0.0953
      5 C          59.2222   92.4175    3.2408 C.3     1  UNL1        0.0442
      6 C          60.7204   92.4312    3.3143 C.3     1  UNL1        0.0933
      7 C          61.4252   91.6671    4.3956 C.3     1  UNL1        0.0442
      8 C          60.6320   90.8892    5.4034 C.3     1  UNL1        0.0953
      9 N          61.5137   93.2090    2.3064 N.ar    1  UNL1       -0.2817
     10 C          62.9108   92.9006    1.8559 C.ar    1  UNL1        0.3317
     11 O          63.7599   91.7603    2.3340 O.2     1  UNL1       -0.2463
     12 N          63.3096   93.9328    0.8432 N.ar    1  UNL1       -0.2758
     13 C          62.1590   94.8791    0.6679 C.ar    1  UNL1        0.0800
     14 C          61.9786   96.0902   -0.1984 C.ar    1  UNL1        0.0188
     15 C          60.6882   96.8541   -0.1603 C.ar    1  UNL1        0.0016
     16 C          59.5783   96.4067    0.7441 C.ar    1  UNL1        0.0016
     17 C          59.7587   95.1955    1.6103 C.ar    1  UNL1        0.0188
     18 C          61.0490   94.4317    1.5722 C.ar    1  UNL1        0.0796
     19 C          64.6276   94.0059    0.1308 C.3     1  UNL1        0.1373
     20 C          64.7138   94.6451   -1.2235 C.ar    1  UNL1        0.0014
     21 C          65.3631   95.9883   -1.3790 C.ar    1  UNL1       -0.0023
     22 C          65.4492   96.6275   -2.7332 C.ar    1  UNL1        0.0006
     23 C          64.8860   95.9235   -3.9320 C.ar    1  UNL1        0.0114
     24 C          64.2367   94.5803   -3.7766 C.ar    1  UNL1        0.0574
     25 CL         63.6736   93.8762   -4.9754 Cl      1  UNL1       -0.0823
     26 C          64.1506   93.9410   -2.4224 C.ar    1  UNL1        0.0090
     27 C          59.0455   89.3336    7.4192 C.3     1  UNL1        0.0795
     28 C          59.7947   90.0688    8.4906 C.3     1  UNL1        0.0264
     29 C          60.4996   89.3047    9.5720 C.3     1  UNL1        0.0729
     30 N          60.4552   87.8054    9.5818 N.3     1  UNL1       -0.2689
     31 C          59.7059   87.0702    8.5103 C.3     1  UNL1        0.0729
     32 C          59.0010   87.8343    7.4290 C.3     1  UNL1        0.0264
     33 C          61.1601   87.0413   10.6631 C.3     1  UNL1        0.0992
     34 C          62.0400   85.8793   10.3089 C.ar    1  UNL1       -0.0031
     35 C          62.3733   84.8476   11.3455 C.ar    1  UNL1        0.0178
     36 C          63.2532   83.6856   10.9914 C.ar    1  UNL1        0.0986
     37 N          63.7998   83.5552    9.6006 N.ar    1  UNL1       -0.2423
     38 C          63.4665   84.5869    8.5640 C.ar    1  UNL1        0.0986
     39 C          62.5866   85.7489    8.9182 C.ar    1  UNL1        0.0178
@<TRIPOS>BOND
     1     1     2    2
     2     2    27    1
     3    27    28    1
     4    28    29    1
     5    29    30    1
     6    30    33    1
     7    33    34    1
     8    34    35   ar
     9    35    36   ar
    10    36    37   ar
    11    37    38   ar
    12    38    39   ar
    13    30    31    1
    14    31    32    1
    15     2     3   am
    16     3     4    1
    17     4     5    1
    18     5     6    1
    19     6     9    1
    20     9    10   ar
    21    10    11    2
    22    10    12   ar
    23    12    19    1
    24    19    20    1
    25    20    21   ar
    26    21    22   ar
    27    22    23   ar
    28    23    24   ar
    29    24    25    1
    30    24    26   ar
    31    12    13   ar
    32    13    14   ar
    33    14    15   ar
    34    15    16   ar
    35    16    17   ar
    36    17    18   ar
    37     6     7    1
    38     7     8    1
    39    32    27    1
    40     8     3    1
    41    39    34   ar
    42    18     9   ar
    43    26    20   ar
    44    18    13   ar
@<TRIPOS>MOLECULE
*****
 39 44 0 0 0
SMALL
GASTEIGER

@<TRIPOS>ATOM
      1 O          57.1261   90.8361    5.8165 O.2     1  UNL1       -0.2749
      2 C          58.6088   90.6124    5.8527 C.2     1  UNL1        0.2252
      3 N          59.4838   91.2120    4.7921 N.am    1  UNL1       -0.2794
      4 C          58.8760   92.0353    3.6953 C.3     1  UNL1        0.0953
      5 C          59.7509   92.6349    2.6347 C.3     1  UNL1        0.0442
      6 C          61.2338   92.4112    2.6708 C.3     1  UNL1        0.0933
      7 C          61.8415   91.5879    3.7675 C.3     1  UNL1        0.0442
      8 C          60.9666   90.9884    4.8281 C.3     1  UNL1        0.0953
      9 N          62.1088   93.0108    1.6101 N.ar    1  UNL1       -0.2817
     10 C          62.0003   92.7644    0.1345 C.ar    1  UNL1        0.3317
     11 O          60.9979   91.8752   -0.5396 O.2     1  UNL1       -0.2463
     12 N          63.0703   93.5634   -0.5486 N.ar    1  UNL1       -0.2758
     13 C          63.8401   94.3035    0.5048 C.ar    1  UNL1        0.0800
     14 C          65.0053   95.2444    0.4214 C.ar    1  UNL1        0.0188
     15 C          65.5763   95.8437    1.6723 C.ar    1  UNL1        0.0016
     16 C          64.9820   95.5021    3.0066 C.ar    1  UNL1        0.0016
     17 C          63.8167   94.5613    3.0899 C.ar    1  UNL1        0.0188
     18 C          63.2458   93.9620    1.8390 C.ar    1  UNL1        0.0796
     19 C          63.3258   93.6134   -2.0259 C.3     1  UNL1        0.1373
     20 C          62.4444   94.4432   -2.9118 C.ar    1  UNL1        0.0014
     21 C          62.8582   95.8344   -3.2904 C.ar    1  UNL1       -0.0023
     22 C          61.9769   96.6642   -4.1762 C.ar    1  UNL1        0.0006
     23 C          60.6817   96.1027   -4.6834 C.ar    1  UNL1        0.0114
     24 C          60.2679   94.7115   -4.3048 C.ar    1  UNL1        0.0574
     25 CL         58.9727   94.1501   -4.8121 Cl      1  UNL1       -0.0823
     26 C          61.1492   93.8818   -3.4190 C.ar    1  UNL1        0.0090
     27 C          59.2167   89.7892    6.9494 C.3     1  UNL1        0.0795
     28 C          60.0545   90.4476    8.0051 C.3     1  UNL1        0.0264
     29 C          60.6623   89.6244    9.1018 C.3     1  UNL1        0.0729
     30 N          60.4323   88.1427    9.1428 N.3     1  UNL1       -0.2689
     31 C          59.5945   87.4842    8.0871 C.3     1  UNL1        0.0729
     32 C          58.9866   88.3074    6.9903 C.3     1  UNL1        0.0264
     33 C          61.0401   87.3194   10.2395 C.3     1  UNL1        0.0992
     34 C          61.9319   86.1616    9.9020 C.ar    1  UNL1       -0.0031
     35 C          62.4091   85.9683    8.4931 C.ar    1  UNL1        0.0178
     36 C          63.3009   84.8105    8.1554 C.ar    1  UNL1        0.0986
     37 N          63.7156   83.8459    9.2267 N.ar    1  UNL1       -0.2423
     38 C          63.2384   84.0391   10.6356 C.ar    1  UNL1        0.0986
     39 C          62.3466   85.1970   10.9732 C.ar    1  UNL1        0.0178
@<TRIPOS>BOND
     1     1     2    2
     2     2    27    1
     3    27    28    1
     4    28    29    1
     5    29    30    1
     6    30    33    1
     7    33    34    1
     8    34    35   ar
     9    35    36   ar
    10    36    37   ar
    11    37    38   ar
    12    38    39   ar
    13    30    31    1
    14    31    32    1
    15     2     3   am
    16     3     4    1
    17     4     5    1
    18     5     6    1
    19     6     9    1
    20     9    10   ar
    21    10    11    2
    22    10    12   ar
    23    12    19    1
    24    19    20    1
    25    20    21   ar
    26    21    22   ar
    27    22    23   ar
    28    23    24   ar
    29    24    25    1
    30    24    26   ar
    31    12    13   ar
    32    13    14   ar
    33    14    15   ar
    34    15    16   ar
    35    16    17   ar
    36    17    18   ar
    37     6     7    1
    38     7     8    1
    39    32    27    1
    40     8     3    1
    41    39    34   ar
    42    18     9   ar
    43    26    20   ar
    44    18    13   ar
@<TRIPOS>MOLECULE
*****
 39 44 0 0 0
SMALL
GASTEIGER

@<TRIPOS>ATOM
      1 O          62.5292   85.6757   18.0533 O.2     1  UNL1       -0.2749
      2 C          62.9197   85.5650   16.6093 C.2     1  UNL1        0.2252
      3 N          63.3140   86.7926   15.8428 N.am    1  UNL1       -0.2794
      4 C          63.3178   88.1309   16.5204 C.3     1  UNL1        0.0953
      5 C          63.7122   89.3585   15.7539 C.3     1  UNL1        0.0442
      6 C          64.1027   89.2478   14.3098 C.3     1  UNL1        0.0933
      7 C          64.0989   87.9096   13.6324 C.3     1  UNL1        0.0442
      8 C          63.7046   86.6820   14.3988 C.3     1  UNL1        0.0953
      9 N          64.4971   90.4755   13.5433 N.ar    1  UNL1       -0.2817
     10 C          65.4485   91.5377   14.0087 C.ar    1  UNL1        0.3317
     11 O          66.1726   91.5588   15.3222 O.2     1  UNL1       -0.2463
     12 N          65.5486   92.5751   12.9299 N.ar    1  UNL1       -0.2758
     13 C          64.6591   92.1540   11.7978 C.ar    1  UNL1        0.0800
     14 C          64.3570   92.7845   10.4708 C.ar    1  UNL1        0.0188
     15 C          63.4050   92.1174    9.5229 C.ar    1  UNL1        0.0016
     16 C          62.7551   90.8197    9.9020 C.ar    1  UNL1        0.0016
     17 C          63.0572   90.1892   11.2291 C.ar    1  UNL1        0.0188
     18 C          64.0092   90.8563   12.1770 C.ar    1  UNL1        0.0796
     19 C          66.3904   93.8157   12.9751 C.3     1  UNL1        0.1373
     20 C          66.6150   94.6157   11.7262 C.ar    1  UNL1        0.0014
     21 C          66.1987   96.0558   11.6729 C.ar    1  UNL1       -0.0023
     22 C          66.4232   96.8557   10.4241 C.ar    1  UNL1        0.0006
     23 C          67.0642   96.2156    9.2285 C.ar    1  UNL1        0.0114
     24 C          67.4805   94.7755    9.2818 C.ar    1  UNL1        0.0574
     25 CL         68.1214   94.1354    8.0862 Cl      1  UNL1       -0.0823
     26 C          67.2560   93.9756   10.5306 C.ar    1  UNL1        0.0090
     27 C          62.9159   84.2268   15.9317 C.3     1  UNL1        0.0795
     28 C          61.6343   83.6615   15.3950 C.3     1  UNL1        0.0264
     29 C          61.6305   82.3233   14.7175 C.3     1  UNL1        0.0729
     30 N          62.9083   81.5503   14.5766 N.3     1  UNL1       -0.2689
     31 C          64.1899   82.1156   15.1134 C.3     1  UNL1        0.0729
     32 C          64.1937   83.4539   15.7909 C.3     1  UNL1        0.0264
     33 C          62.9045   80.2121   13.8991 C.3     1  UNL1        0.0992
     34 C          62.9059   80.1297   12.4014 C.ar    1  UNL1       -0.0031
     35 C          63.1580   81.3611   11.5828 C.ar    1  UNL1        0.0178
     36 C          63.1595   81.2788   10.0851 C.ar    1  UNL1        0.0986
     37 N          62.9088   79.9650    9.4059 N.ar    1  UNL1       -0.2423
     38 C          62.6568   78.7336   10.2245 C.ar    1  UNL1        0.0986
     39 C          62.6553   78.8159   11.7222 C.ar    1  UNL1        0.0178
@<TRIPOS>BOND
     1     1     2    2
     2     2    27    1
     3    27    28    1
     4    28    29    1
     5    29    30    1
     6    30    33    1
     7    33    34    1
     8    34    35   ar
     9    35    36   ar
    10    36    37   ar
    11    37    38   ar
    12    38    39   ar
    13    30    31    1
    14    31    32    1
    15     2     3   am
    16     3     4    1
    17     4     5    1
    18     5     6    1
    19     6     9    1
    20     9    10   ar
    21    10    11    2
    22    10    12   ar
    23    12    19    1
    24    19    20    1
    25    20    21   ar
    26    21    22   ar
    27    22    23   ar
    28    23    24   ar
    29    24    25    1
    30    24    26   ar
    31    12    13   ar
    32    13    14   ar
    33    14    15   ar
    34    15    16   ar
    35    16    17   ar
    36    17    18   ar
    37     6     7    1
    38     7     8    1
    39    32    27    1
    40     8     3    1
    41    39    34   ar
    42    18     9   ar
    43    26    20   ar
    44    18    13   ar
