@<TRIPOS>MOLECULE
*****
 25 27 0 0 0
SMALL
GASTEIGER

@<TRIPOS>ATOM
      1 C          64.5570   90.4268   13.9862 C.3     1  UNL1        0.1398
      2 O          65.5869   90.8770   14.9794 O.3     1  UNL1       -0.3772
      3 H          65.5447   90.3126   15.7672 H       1  UNL1        0.2112
      4 C          64.1236   89.3419   14.9272 C.ar    1  UNL1        0.0069
      5 C          64.3659   87.9038   14.5764 C.ar    1  UNL1       -0.0008
      6 C          63.9325   86.8191   15.5174 C.ar    1  UNL1        0.0112
      7 C          63.2568   87.1725   16.8092 C.ar    1  UNL1        0.0577
      8 CL         62.8234   86.0877   17.7502 Cl      1  UNL1       -0.0822
      9 C          63.0146   88.6106   17.1599 C.ar    1  UNL1        0.0112
     10 C          63.4480   89.6954   16.2189 C.ar    1  UNL1       -0.0008
     11 C          64.9903   91.5115   13.0452 C.ar    1  UNL1        0.0069
     12 C          64.4269   91.5688   11.6561 C.ar    1  UNL1       -0.0017
     13 C          64.8602   92.6535   10.7152 C.ar    1  UNL1       -0.0004
     14 C          65.8570   93.6810   11.1631 C.ar    1  UNL1       -0.0005
     15 C          66.4205   93.6238   12.5521 C.ar    1  UNL1       -0.0004
     16 C          65.9871   92.5390   13.4931 C.ar    1  UNL1       -0.0017
     17 C          66.2904   94.7658   10.2221 C.2     1  UNL1        0.0249
     18 C          67.4876   94.7236    9.3194 C.2     1  UNL1        0.1194
     19 N          67.5397   96.0149    8.5580 N.2     1  UNL1       -0.1510
     20 N          66.3747   96.8552    8.9902 N.2     1  UNL1       -0.1695
     21 C          65.6026   96.0831   10.0186 C.3     1  UNL1        0.1771
     22 N          62.0687   90.0631   13.3332 N.3     1  UNL1       -0.3186
     23 C          63.5271   89.9766   12.9929 C.3     1  UNL1        0.1010
     24 H          61.5155   89.7174   12.5491 H       1  UNL1        0.1189
     25 H          61.8207   91.0342   13.5223 H       1  UNL1        0.1189
@<TRIPOS>BOND
     1    22    23    1
     2    23     1    1
     3     1     2    1
     4     1     4    1
     5     4     5   ar
     6     5     6   ar
     7     6     7   ar
     8     7     8    1
     9     7     9   ar
    10     9    10   ar
    11     1    11    1
    12    11    12   ar
    13    12    13   ar
    14    13    14   ar
    15    14    17    1
    16    17    18    2
    17    18    19    1
    18    19    20    2
    19    20    21    1
    20    14    15   ar
    21    15    16   ar
    22    10     4   ar
    23    16    11   ar
    24    21    17    1
    25    22    24    1
    26    22    25    1
    27     2     3    1
@<TRIPOS>MOLECULE
*****
 25 27 0 0 0
SMALL
GASTEIGER

@<TRIPOS>ATOM
      1 C          64.6396   91.1905   12.6035 C.3     1  UNL1        0.1398
      2 O          65.0903   91.9830   11.4124 O.3     1  UNL1       -0.3772
      3 H          65.8054   92.5833   11.6753 H       1  UNL1        0.2112
      4 C          65.6534   91.8949   13.4558 C.ar    1  UNL1        0.0069
      5 C          66.4147   91.1332   14.4999 C.ar    1  UNL1       -0.0008
      6 C          67.4283   91.8376   15.3521 C.ar    1  UNL1        0.0112
      7 C          67.6806   93.3037   15.1602 C.ar    1  UNL1        0.0577
      8 CL         68.6943   94.0081   16.0125 Cl      1  UNL1       -0.0822
      9 C          66.9193   94.0654   14.1162 C.ar    1  UNL1        0.0112
     10 C          65.9057   93.3610   13.2639 C.ar    1  UNL1       -0.0008
     11 C          63.6260   90.4861   11.7513 C.ar    1  UNL1        0.0069
     12 C          63.0141   91.1905   10.5768 C.ar    1  UNL1       -0.0017
     13 C          62.0004   90.4861    9.7246 C.ar    1  UNL1       -0.0004
     14 C          61.5986   89.0773   10.0469 C.ar    1  UNL1       -0.0005
     15 C          62.2104   88.3730   11.2214 C.ar    1  UNL1       -0.0004
     16 C          63.2241   89.0773   12.0736 C.ar    1  UNL1       -0.0017
     17 C          60.5849   88.3730    9.1947 C.2     1  UNL1        0.0249
     18 C          59.7568   88.9979    8.1113 C.2     1  UNL1        0.1194
     19 N          58.8814   87.9311    7.5233 N.2     1  UNL1       -0.1510
     20 N          59.1686   86.6469    8.2433 N.2     1  UNL1       -0.1695
     21 C          60.2214   86.9200    9.2763 C.3     1  UNL1        0.1771
     22 N          63.2243   90.9985   14.7738 N.3     1  UNL1       -0.3186
     23 C          64.1890   90.3979   13.7946 C.3     1  UNL1        0.1010
     24 H          63.0291   90.3256   15.5151 H       1  UNL1        0.1189
     25 H          62.3565   91.2367   14.2936 H       1  UNL1        0.1189
@<TRIPOS>BOND
     1    22    23    1
     2    23     1    1
     3     1     2    1
     4     1     4    1
     5     4     5   ar
     6     5     6   ar
     7     6     7   ar
     8     7     8    1
     9     7     9   ar
    10     9    10   ar
    11     1    11    1
    12    11    12   ar
    13    12    13   ar
    14    13    14   ar
    15    14    17    1
    16    17    18    2
    17    18    19    1
    18    19    20    2
    19    20    21    1
    20    14    15   ar
    21    15    16   ar
    22    10     4   ar
    23    16    11   ar
    24    21    17    1
    25    22    24    1
    26    22    25    1
    27     2     3    1
@<TRIPOS>MOLECULE
*****
 25 27 0 0 0
SMALL
GASTEIGER

@<TRIPOS>ATOM
      1 C          62.5578   89.4835   11.0741 C.3     1  UNL1        0.1398
      2 O          63.2918   90.0019    9.8731 O.3     1  UNL1       -0.3772
      3 H          62.8569   89.6842    9.0664 H       1  UNL1        0.2112
      4 C          61.5849   88.7791   10.1756 C.ar    1  UNL1        0.0069
      5 C          60.7133   89.5709    9.2464 C.ar    1  UNL1       -0.0008
      6 C          59.7405   88.8665    8.3480 C.ar    1  UNL1        0.0112
      7 C          59.6393   87.3702    8.3786 C.ar    1  UNL1        0.0577
      8 CL         58.6664   86.6658    7.4800 Cl      1  UNL1       -0.0822
      9 C          60.5108   86.5784    9.3077 C.ar    1  UNL1        0.0112
     10 C          61.4837   87.2828   10.2062 C.ar    1  UNL1       -0.0008
     11 C          63.5306   90.1879   11.9727 C.ar    1  UNL1        0.0069
     12 C          64.1359   91.4926   11.5467 C.ar    1  UNL1       -0.0017
     13 C          65.1087   92.1970   12.4452 C.ar    1  UNL1       -0.0004
     14 C          65.4763   91.5967   13.7698 C.ar    1  UNL1       -0.0005
     15 C          64.8711   90.2921   14.1958 C.ar    1  UNL1       -0.0004
     16 C          63.8982   89.5876   13.2973 C.ar    1  UNL1       -0.0017
     17 C          66.4491   92.3011   14.6684 C.2     1  UNL1        0.0249
     18 C          66.2157   92.6706   16.1033 C.2     1  UNL1        0.1194
     19 N          67.4485   93.3575   16.6115 N.2     1  UNL1       -0.1510
     20 N          68.4438   93.4126   15.4907 N.2     1  UNL1       -0.1695
     21 C          67.8262   92.7597   14.2898 C.3     1  UNL1        0.1771
     22 N          60.5683   89.6434   12.7374 N.3     1  UNL1       -0.3186
     23 C          61.8238   88.9651   12.2751 C.3     1  UNL1        0.1010
     24 H          60.2051   89.1623   13.5602 H       1  UNL1        0.1189
     25 H          59.8724   89.6150   11.9921 H       1  UNL1        0.1189
@<TRIPOS>BOND
     1    22    23    1
     2    23     1    1
     3     1     2    1
     4     1     4    1
     5     4     5   ar
     6     5     6   ar
     7     6     7   ar
     8     7     8    1
     9     7     9   ar
    10     9    10   ar
    11     1    11    1
    12    11    12   ar
    13    12    13   ar
    14    13    14   ar
    15    14    17    1
    16    17    18    2
    17    18    19    1
    18    19    20    2
    19    20    21    1
    20    14    15   ar
    21    15    16   ar
    22    10     4   ar
    23    16    11   ar
    24    21    17    1
    25    22    24    1
    26    22    25    1
    27     2     3    1
@<TRIPOS>MOLECULE
*****
 25 27 0 0 0
SMALL
GASTEIGER

@<TRIPOS>ATOM
      1 C          65.6019   92.6997   11.6247 C.3     1  UNL1        0.1398
      2 O          64.6312   92.1814   10.6054 O.3     1  UNL1       -0.3772
      3 H          64.7079   92.7032    9.7913 H       1  UNL1        0.2112
      4 C          66.0709   93.7388   10.6498 C.ar    1  UNL1        0.0069
      5 C          65.4038   95.0816   10.6061 C.ar    1  UNL1       -0.0008
      6 C          65.8729   96.1206    9.6313 C.ar    1  UNL1        0.0112
      7 C          67.0090   95.8169    8.7001 C.ar    1  UNL1        0.0577
      8 CL         67.4780   96.8560    7.7252 Cl      1  UNL1       -0.0822
      9 C          67.6760   94.4741    8.7438 C.ar    1  UNL1        0.0112
     10 C          67.2070   93.4351    9.7187 C.ar    1  UNL1       -0.0008
     11 C          65.1329   91.6607   12.5996 C.ar    1  UNL1        0.0069
     12 C          63.8025   90.9956   12.4048 C.ar    1  UNL1       -0.0017
     13 C          63.3335   89.9566   13.3796 C.ar    1  UNL1       -0.0004
     14 C          64.1948   89.5826   14.5493 C.ar    1  UNL1       -0.0005
     15 C          65.5251   90.2476   14.7442 C.ar    1  UNL1       -0.0004
     16 C          65.9942   91.2867   13.7693 C.ar    1  UNL1       -0.0017
     17 C          63.7259   88.5435   15.5242 C.2     1  UNL1        0.0249
     18 C          64.0045   87.0717   15.4462 C.2     1  UNL1        0.1194
     19 N          63.3467   86.4124   16.6220 N.2     1  UNL1       -0.1510
     20 N          62.6616   87.4768   17.4268 N.2     1  UNL1       -0.1695
     21 C          62.8959   88.7939   16.7483 C.3     1  UNL1        0.1771
     22 N          66.1545   94.2994   13.5959 N.3     1  UNL1       -0.3186
     23 C          66.5725   93.2180   12.6441 C.3     1  UNL1        0.1010
     24 H          66.9331   94.5280   14.2140 H       1  UNL1        0.1189
     25 H          65.3628   93.9759   14.1517 H       1  UNL1        0.1189
@<TRIPOS>BOND
     1    22    23    1
     2    23     1    1
     3     1     2    1
     4     1     4    1
     5     4     5   ar
     6     5     6   ar
     7     6     7   ar
     8     7     8    1
     9     7     9   ar
    10     9    10   ar
    11     1    11    1
    12    11    12   ar
    13    12    13   ar
    14    13    14   ar
    15    14    17    1
    16    17    18    2
    17    18    19    1
    18    19    20    2
    19    20    21    1
    20    14    15   ar
    21    15    16   ar
    22    10     4   ar
    23    16    11   ar
    24    21    17    1
    25    22    24    1
    26    22    25    1
    27     2     3    1
@<TRIPOS>MOLECULE
*****
 25 27 0 0 0
SMALL
GASTEIGER

@<TRIPOS>ATOM
      1 C          63.5059   84.7500   12.9940 C.3     1  UNL1        0.1398
      2 O          62.7801   85.3331   11.8179 O.3     1  UNL1       -0.3772
      3 H          62.5101   84.6198   11.2185 H       1  UNL1        0.2112
      4 C          63.3197   83.3739   12.4268 C.ar    1  UNL1        0.0069
      5 C          63.7233   83.0851   11.0113 C.ar    1  UNL1       -0.0008
      6 C          63.5371   81.7091   10.4442 C.ar    1  UNL1        0.0112
      7 C          62.9472   80.6217   11.2926 C.ar    1  UNL1        0.0577
      8 CL         62.7609   79.2456   10.7254 Cl      1  UNL1       -0.0822
      9 C          62.5435   80.9105   12.7081 C.ar    1  UNL1        0.0112
     10 C          62.7298   82.2866   13.2752 C.ar    1  UNL1       -0.0008
     11 C          63.6921   86.1261   13.5612 C.ar    1  UNL1        0.0069
     12 C          63.5140   87.3295   12.6836 C.ar    1  UNL1       -0.0017
     13 C          63.7002   88.7056   13.2508 C.ar    1  UNL1       -0.0004
     14 C          64.0646   88.8783   14.6955 C.ar    1  UNL1       -0.0005
     15 C          64.2428   87.6750   15.5731 C.ar    1  UNL1       -0.0004
     16 C          64.0565   86.2988   15.0060 C.ar    1  UNL1       -0.0017
     17 C          64.2509   90.2543   15.2627 C.2     1  UNL1        0.0249
     18 C          63.4735   90.8530   16.3973 C.2     1  UNL1        0.1194
     19 N          63.9893   92.2420   16.6307 N.2     1  UNL1       -0.1510
     20 N          65.0856   92.5018   15.6404 N.2     1  UNL1       -0.1695
     21 C          65.2472   91.2733   14.7949 C.3     1  UNL1        0.1771
     22 N          65.7303   84.1021   14.1697 N.3     1  UNL1       -0.3186
     23 C          64.2316   84.1670   14.1701 C.3     1  UNL1        0.1010
     24 H          66.0526   83.6798   15.0404 H       1  UNL1        0.1189
     25 H          66.1115   85.0446   14.0874 H       1  UNL1        0.1189
@<TRIPOS>BOND
     1    22    23    1
     2    23     1    1
     3     1     2    1
     4     1     4    1
     5     4     5   ar
     6     5     6   ar
     7     6     7   ar
     8     7     8    1
     9     7     9   ar
    10     9    10   ar
    11     1    11    1
    12    11    12   ar
    13    12    13   ar
    14    13    14   ar
    15    14    17    1
    16    17    18    2
    17    18    19    1
    18    19    20    2
    19    20    21    1
    20    14    15   ar
    21    15    16   ar
    22    10     4   ar
    23    16    11   ar
    24    21    17    1
    25    22    24    1
    26    22    25    1
    27     2     3    1
@<TRIPOS>MOLECULE
*****
 25 27 0 0 0
SMALL
GASTEIGER

@<TRIPOS>ATOM
      1 C          62.5975   87.8089   10.6380 C.3     1  UNL1        0.1398
      2 O          62.4435   89.0298    9.7804 O.3     1  UNL1       -0.3772
      3 H          62.1135   88.7710    8.9057 H       1  UNL1        0.2112
      4 C          62.1107   86.9527    9.5066 C.ar    1  UNL1        0.0069
      5 C          60.7034   87.0973    9.0082 C.ar    1  UNL1       -0.0008
      6 C          60.2167   86.2412    7.8769 C.ar    1  UNL1        0.0112
      7 C          61.1374   85.2403    7.2439 C.ar    1  UNL1        0.0577
      8 CL         60.6506   84.3841    6.1124 Cl      1  UNL1       -0.0822
      9 C          62.5447   85.0957    7.7422 C.ar    1  UNL1        0.0112
     10 C          63.0314   85.9518    8.8736 C.ar    1  UNL1       -0.0008
     11 C          63.0842   88.6650   11.7694 C.ar    1  UNL1        0.0069
     12 C          63.0384   90.1598   11.6524 C.ar    1  UNL1       -0.0017
     13 C          63.5252   91.0159   12.7838 C.ar    1  UNL1       -0.0004
     14 C          64.0577   90.3774   14.0323 C.ar    1  UNL1       -0.0005
     15 C          64.1034   88.8827   14.1493 C.ar    1  UNL1       -0.0004
     16 C          63.6167   88.0265   13.0179 C.ar    1  UNL1       -0.0017
     17 C          64.5444   91.2335   15.1637 C.2     1  UNL1        0.0249
     18 C          63.8273   91.4741   16.4590 C.2     1  UNL1        0.1194
     19 N          64.6734   92.3886   17.2943 N.2     1  UNL1       -0.1510
     20 N          65.9134   92.7133   16.5151 N.2     1  UNL1       -0.1695
     21 C          65.8337   91.9993   15.1984 C.3     1  UNL1        0.1771
     22 N          61.5376   85.8338   11.9517 N.3     1  UNL1       -0.3186
     23 C          62.7514   86.5880   11.4957 C.3     1  UNL1        0.1010
     24 H          61.8258   85.0381   12.5212 H       1  UNL1        0.1189
     25 H          61.0193   85.5003   11.1390 H       1  UNL1        0.1189
@<TRIPOS>BOND
     1    22    23    1
     2    23     1    1
     3     1     2    1
     4     1     4    1
     5     4     5   ar
     6     5     6   ar
     7     6     7   ar
     8     7     8    1
     9     7     9   ar
    10     9    10   ar
    11     1    11    1
    12    11    12   ar
    13    12    13   ar
    14    13    14   ar
    15    14    17    1
    16    17    18    2
    17    18    19    1
    18    19    20    2
    19    20    21    1
    20    14    15   ar
    21    15    16   ar
    22    10     4   ar
    23    16    11   ar
    24    21    17    1
    25    22    24    1
    26    22    25    1
    27     2     3    1
@<TRIPOS>MOLECULE
*****
 25 27 0 0 0
SMALL
GASTEIGER

@<TRIPOS>ATOM
      1 C          63.5543   84.7303   12.6520 C.3     1  UNL1        0.1398
      2 O          64.8117   84.2559   13.3182 O.3     1  UNL1       -0.3772
      3 H          64.9746   83.3300   13.0791 H       1  UNL1        0.2112
      4 C          63.3770   83.3795   12.0243 C.ar    1  UNL1        0.0069
      5 C          62.5486   82.3355   12.7126 C.ar    1  UNL1       -0.0008
      6 C          62.3714   80.9848   12.0849 C.ar    1  UNL1        0.0112
      7 C          63.0226   80.6781   10.7689 C.ar    1  UNL1        0.0577
      8 CL         62.8453   79.3272   10.1412 Cl      1  UNL1       -0.0822
      9 C          63.8509   81.7220   10.0806 C.ar    1  UNL1        0.0112
     10 C          64.0282   83.0728   10.7083 C.ar    1  UNL1       -0.0008
     11 C          63.7315   86.0811   13.2797 C.ar    1  UNL1        0.0069
     12 C          64.2589   86.1944   14.6793 C.ar    1  UNL1       -0.0017
     13 C          64.4361   87.5452   15.3070 C.ar    1  UNL1       -0.0004
     14 C          64.0859   88.7827   14.5350 C.ar    1  UNL1       -0.0005
     15 C          63.5585   88.6694   13.1354 C.ar    1  UNL1       -0.0004
     16 C          63.3813   87.3186   12.5077 C.ar    1  UNL1       -0.0017
     17 C          64.2632   90.1335   15.1627 C.2     1  UNL1        0.0249
     18 C          65.2399   91.1860   14.7289 C.2     1  UNL1        0.1194
     19 N          65.0752   92.3719   15.6324 N.2     1  UNL1       -0.1510
     20 N          63.9966   92.0523   16.6247 N.2     1  UNL1       -0.1695
     21 C          63.4947   90.6689   16.3343 C.3     1  UNL1        0.1771
     22 N          62.2304   85.2999   10.4903 N.3     1  UNL1       -0.3186
     23 C          62.2969   85.2048   11.9859 C.3     1  UNL1        0.1010
     24 H          61.3091   85.6375   10.2117 H       1  UNL1        0.1189
     25 H          62.3922   84.3786   10.0835 H       1  UNL1        0.1189
@<TRIPOS>BOND
     1    22    23    1
     2    23     1    1
     3     1     2    1
     4     1     4    1
     5     4     5   ar
     6     5     6   ar
     7     6     7   ar
     8     7     8    1
     9     7     9   ar
    10     9    10   ar
    11     1    11    1
    12    11    12   ar
    13    12    13   ar
    14    13    14   ar
    15    14    17    1
    16    17    18    2
    17    18    19    1
    18    19    20    2
    19    20    21    1
    20    14    15   ar
    21    15    16   ar
    22    10     4   ar
    23    16    11   ar
    24    21    17    1
    25    22    24    1
    26    22    25    1
    27     2     3    1
@<TRIPOS>MOLECULE
*****
 25 27 0 0 0
SMALL
GASTEIGER

@<TRIPOS>ATOM
      1 C          61.5004   86.0458   10.2924 C.3     1  UNL1        0.1398
      2 O          60.8634   86.7817   11.4337 O.3     1  UNL1       -0.3772
      3 H          61.1131   86.3593   12.2704 H       1  UNL1        0.2112
      4 C          62.1354   85.0927   11.2613 C.ar    1  UNL1        0.0069
      5 C          62.6355   85.5909   12.5848 C.ar    1  UNL1       -0.0008
      6 C          63.2704   84.6379   13.5535 C.ar    1  UNL1        0.0112
      7 C          63.4051   83.1867   13.1989 C.ar    1  UNL1        0.0577
      8 CL         64.0400   82.2336   14.1678 Cl      1  UNL1       -0.0822
      9 C          62.9050   82.6885   11.8754 C.ar    1  UNL1        0.0112
     10 C          62.2701   83.6415   10.9066 C.ar    1  UNL1       -0.0008
     11 C          60.8656   86.9988    9.3236 C.ar    1  UNL1        0.0069
     12 C          61.0630   88.4768    9.4867 C.ar    1  UNL1       -0.0017
     13 C          60.4282   89.4297    8.5179 C.ar    1  UNL1       -0.0004
     14 C          59.5958   88.9048    7.3858 C.ar    1  UNL1       -0.0005
     15 C          59.3983   87.4269    7.2226 C.ar    1  UNL1       -0.0004
     16 C          60.0332   86.4738    8.1915 C.ar    1  UNL1       -0.0017
     17 C          58.9609   89.8578    6.4169 C.2     1  UNL1        0.0249
     18 C          59.6872   90.7770    5.4801 C.2     1  UNL1        0.1194
     19 N          58.6635   91.5462    4.6990 N.2     1  UNL1       -0.1510
     20 N          57.3044   91.1023    5.1530 N.2     1  UNL1       -0.1695
     21 C          57.4883   90.0588    6.2147 C.3     1  UNL1        0.1771
     22 N          63.3327   85.8926    8.4568 N.3     1  UNL1       -0.3186
     23 C          62.1375   85.3099    9.1511 C.3     1  UNL1        0.1010
     24 H          63.6328   85.2642    7.7115 H       1  UNL1        0.1189
     25 H          64.0916   86.0110    9.1279 H       1  UNL1        0.1189
@<TRIPOS>BOND
     1    22    23    1
     2    23     1    1
     3     1     2    1
     4     1     4    1
     5     4     5   ar
     6     5     6   ar
     7     6     7   ar
     8     7     8    1
     9     7     9   ar
    10     9    10   ar
    11     1    11    1
    12    11    12   ar
    13    12    13   ar
    14    13    14   ar
    15    14    17    1
    16    17    18    2
    17    18    19    1
    18    19    20    2
    19    20    21    1
    20    14    15   ar
    21    15    16   ar
    22    10     4   ar
    23    16    11   ar
    24    21    17    1
    25    22    24    1
    26    22    25    1
    27     2     3    1
@<TRIPOS>MOLECULE
*****
 25 27 0 0 0
SMALL
GASTEIGER

@<TRIPOS>ATOM
      1 C          63.3916   85.2218   13.5836 C.3     1  UNL1        0.1398
      2 O          63.8177   84.9992   15.0044 O.3     1  UNL1       -0.3772
      3 H          63.6714   84.0707   15.2442 H       1  UNL1        0.2112
      4 C          63.0009   83.7777   13.4745 C.ar    1  UNL1        0.0069
      5 C          62.1454   83.1500   14.5347 C.ar    1  UNL1       -0.0008
      6 C          61.7547   81.7059   14.4255 C.ar    1  UNL1        0.0112
      7 C          62.2195   80.8895   13.2561 C.ar    1  UNL1        0.0577
      8 CL         61.8288   79.4453   13.1470 Cl      1  UNL1       -0.0822
      9 C          63.0750   81.5172   12.1959 C.ar    1  UNL1        0.0112
     10 C          63.4657   82.9613   12.3051 C.ar    1  UNL1       -0.0008
     11 C          63.7823   86.6659   13.6927 C.ar    1  UNL1        0.0069
     12 C          63.3975   87.6308   12.6106 C.ar    1  UNL1       -0.0017
     13 C          63.7881   89.0749   12.7196 C.ar    1  UNL1       -0.0004
     14 C          64.5636   89.5541   13.9108 C.ar    1  UNL1       -0.0005
     15 C          64.9485   88.5893   14.9929 C.ar    1  UNL1       -0.0004
     16 C          64.5578   87.1451   14.8839 C.ar    1  UNL1       -0.0017
     17 C          64.9543   90.9982   14.0199 C.2     1  UNL1        0.0249
     18 C          64.9937   91.9885   12.8939 C.2     1  UNL1        0.1194
     19 N          65.4379   93.3079   13.4522 N.2     1  UNL1       -0.1510
     20 N          65.6731   93.1331   14.9234 N.2     1  UNL1       -0.1695
     21 C          65.3742   91.7056   15.2742 C.3     1  UNL1        0.1771
     22 N          61.5262   85.7252   11.8466 N.3     1  UNL1       -0.3186
     23 C          62.9654   85.4444   12.1628 C.3     1  UNL1        0.1010
     24 H          61.4172   85.8498   10.8402 H       1  UNL1        0.1189
     25 H          61.2318   86.5748   12.3282 H       1  UNL1        0.1189
@<TRIPOS>BOND
     1    22    23    1
     2    23     1    1
     3     1     2    1
     4     1     4    1
     5     4     5   ar
     6     5     6   ar
     7     6     7   ar
     8     7     8    1
     9     7     9   ar
    10     9    10   ar
    11     1    11    1
    12    11    12   ar
    13    12    13   ar
    14    13    14   ar
    15    14    17    1
    16    17    18    2
    17    18    19    1
    18    19    20    2
    19    20    21    1
    20    14    15   ar
    21    15    16   ar
    22    10     4   ar
    23    16    11   ar
    24    21    17    1
    25    22    24    1
    26    22    25    1
    27     2     3    1
