@<TRIPOS>MOLECULE
*****
 32 34 0 0 0
SMALL
GASTEIGER

@<TRIPOS>ATOM
      1 C          63.2307   85.9122   13.2447 C.3     1  UNL1        0.0377
      2 C          63.7111   85.5840   14.6273 C.3     1  UNL1        0.0075
      3 C          64.4445   86.6163   15.4313 C.3     1  UNL1        0.0219
      4 C          64.6975   87.9769   14.8526 C.3     1  UNL1        0.0950
      5 N          64.2171   88.3052   13.4701 N.am    1  UNL1       -0.2637
      6 C          64.4701   89.6658   12.8915 C.2     1  UNL1        0.3077
      7 O          63.9897   89.9939   11.5089 O.2     1  UNL1       -0.2522
      8 N          65.2035   90.6981   13.6955 N.am    1  UNL1       -0.2681
      9 C          63.4837   87.2728   12.6661 C.3     1  UNL1        0.0989
     10 H          65.5188   90.4827   14.6029 H       1  UNL1        0.1564
     11 C          65.4565   92.0587   13.1168 C.ar    1  UNL1        0.0516
     12 C          65.0344   92.3658   11.7105 C.ar    1  UNL1        0.0156
     13 C          65.2873   93.7263   11.1318 C.ar    1  UNL1        0.0127
     14 C          65.9623   94.7797   11.9593 C.ar    1  UNL1        0.0578
     15 CL         66.2153   96.1403   11.3806 Cl      1  UNL1       -0.0822
     16 C          66.3844   94.4726   13.3656 C.ar    1  UNL1        0.0127
     17 C          66.1315   93.1120   13.9443 C.ar    1  UNL1        0.0156
     18 C          62.7533   84.4946   13.3566 C.ar    1  UNL1       -0.0212
     19 C          62.2071   83.9877   14.6584 C.ar    1  UNL1       -0.0043
     20 C          61.7297   82.5701   14.7703 C.ar    1  UNL1        0.0035
     21 C          61.7984   81.6595   13.5804 C.ar    1  UNL1        0.0714
     22 C          62.3446   82.1664   12.2786 C.ar    1  UNL1        0.0035
     23 C          62.8220   83.5839   12.1667 C.ar    1  UNL1       -0.0043
     24 C          61.3210   80.2418   13.6923 C.3     1  UNL1        0.4186
     25 F          60.8436   78.8243   13.8041 F       1  UNL1       -0.1659
     26 F          60.1385   80.7031   14.4916 F       1  UNL1       -0.1659
     27 F          62.5034   79.7805   12.8929 F       1  UNL1       -0.1659
     28 C          62.5845   85.7481   11.9010 C.3     1  UNL1        0.0116
     29 C          62.2305   86.9568   11.0864 C.3     1  UNL1        0.0421
     30 O          59.9261   88.0509   11.5792 O.co2   1  UNL1       -0.5492
     31 C          60.8031   87.2093   10.7003 C.2     1  UNL1        0.0503
     32 O          60.2530   86.6201    9.4353 O.co2   1  UNL1       -0.5492
@<TRIPOS>UNITY_ATOM_ATTR
30 1
charge -1
@<TRIPOS>BOND
     1    30    31   ar
     2    31    32   ar
     3    31    29    1
     4    29    28    1
     5    28     1    1
     6     1    18    1
     7    18    19   ar
     8    19    20   ar
     9    20    21   ar
    10    21    24    1
    11    24    25    1
    12    24    26    1
    13    24    27    1
    14    21    22   ar
    15    22    23   ar
    16     1     2    1
    17     2     3    1
    18     3     4    1
    19     4     5    1
    20     5     6   am
    21     6     7    2
    22     6     8   am
    23     8    11    1
    24    11    12   ar
    25    12    13   ar
    26    13    14   ar
    27    14    15    1
    28    14    16   ar
    29    16    17   ar
    30     5     9    1
    31     9     1    1
    32    23    18   ar
    33    17    11   ar
    34     8    10    1
@<TRIPOS>MOLECULE
*****
 32 34 0 0 0
SMALL
GASTEIGER

@<TRIPOS>ATOM
      1 C          65.3220   91.2790   13.0979 C.3     1  UNL1        0.0377
      2 C          65.7388   92.4376   12.2413 C.3     1  UNL1        0.0075
      3 C          65.0963   92.6501   10.9027 C.3     1  UNL1        0.0219
      4 C          64.0369   91.7038   10.4206 C.3     1  UNL1        0.0950
      5 N          63.6201   90.5452   11.2771 N.am    1  UNL1       -0.2637
      6 C          62.5607   89.5989   10.7951 C.2     1  UNL1        0.3077
      7 O          62.1439   88.4403   11.6517 O.2     1  UNL1       -0.2522
      8 N          61.9182   89.8114    9.4564 N.am    1  UNL1       -0.2681
      9 C          64.2626   90.3327   12.6158 C.3     1  UNL1        0.0989
     10 H          62.1917   90.5718    8.8942 H       1  UNL1        0.1564
     11 C          60.8588   88.8651    8.9744 C.ar    1  UNL1        0.0516
     12 C          60.8214   87.4563    9.4885 C.ar    1  UNL1        0.0156
     13 C          59.7621   86.5101    9.0066 C.ar    1  UNL1        0.0127
     14 C          58.7402   86.9724    8.0106 C.ar    1  UNL1        0.0578
     15 CL         57.6808   86.0260    7.5286 Cl      1  UNL1       -0.0822
     16 C          58.7776   88.3810    7.4965 C.ar    1  UNL1        0.0127
     17 C          59.8370   89.3274    7.9785 C.ar    1  UNL1        0.0156
     18 C          66.3621   91.8974   13.9844 C.ar    1  UNL1       -0.0212
     19 C          65.9714   92.4617   15.3181 C.ar    1  UNL1       -0.0043
     20 C          67.0115   93.0801   16.2045 C.ar    1  UNL1        0.0035
     21 C          68.4422   93.1342   15.7573 C.ar    1  UNL1        0.0714
     22 C          68.8329   92.5698   14.4236 C.ar    1  UNL1        0.0035
     23 C          67.7928   91.9514   13.5371 C.ar    1  UNL1       -0.0043
     24 C          69.4823   93.7526   16.6438 C.3     1  UNL1        0.4186
     25 F          70.5223   94.3710   17.5303 F       1  UNL1       -0.1659
     26 F          69.9710   92.3863   17.0237 F       1  UNL1       -0.1659
     27 F          68.9936   95.1189   16.2639 F       1  UNL1       -0.1659
     28 C          65.2664   90.3350   14.2623 C.3     1  UNL1        0.0116
     29 C          63.9962   89.5998   14.5718 C.3     1  UNL1        0.0421
     30 O          63.2787   90.9212   16.6906 O.co2   1  UNL1       -0.5492
     31 C          63.4389   89.6185   15.9644 C.2     1  UNL1        0.0503
     32 O          63.0420   88.3346   16.6306 O.co2   1  UNL1       -0.5492
@<TRIPOS>UNITY_ATOM_ATTR
30 1
charge -1
@<TRIPOS>BOND
     1    30    31   ar
     2    31    32   ar
     3    31    29    1
     4    29    28    1
     5    28     1    1
     6     1    18    1
     7    18    19   ar
     8    19    20   ar
     9    20    21   ar
    10    21    24    1
    11    24    25    1
    12    24    26    1
    13    24    27    1
    14    21    22   ar
    15    22    23   ar
    16     1     2    1
    17     2     3    1
    18     3     4    1
    19     4     5    1
    20     5     6   am
    21     6     7    2
    22     6     8   am
    23     8    11    1
    24    11    12   ar
    25    12    13   ar
    26    13    14   ar
    27    14    15    1
    28    14    16   ar
    29    16    17   ar
    30     5     9    1
    31     9     1    1
    32    23    18   ar
    33    17    11   ar
    34     8    10    1
@<TRIPOS>MOLECULE
*****
 32 34 0 0 0
SMALL
GASTEIGER

@<TRIPOS>ATOM
      1 C          59.1899   94.7778   -1.5713 C.3     1  UNL1        0.0377
      2 C          59.3502   95.8708   -0.5567 C.3     1  UNL1        0.0075
      3 C          58.2413   96.8560   -0.3340 C.3     1  UNL1        0.0219
      4 C          56.9720   96.7481   -1.1261 C.3     1  UNL1        0.0950
      5 N          56.8117   95.6551   -2.1407 N.am    1  UNL1       -0.2637
      6 C          55.5424   95.5473   -2.9328 C.2     1  UNL1        0.3077
      7 O          55.3822   94.4542   -3.9474 O.2     1  UNL1       -0.2522
      8 N          54.4334   96.5325   -2.7101 N.am    1  UNL1       -0.2681
      9 C          57.9206   94.6699   -2.3634 C.3     1  UNL1        0.0989
     10 H          54.5386   97.2499   -2.0442 H       1  UNL1        0.1564
     11 C          53.1642   96.4246   -3.5022 C.ar    1  UNL1        0.0516
     12 C          51.8840   96.0439   -2.8192 C.ar    1  UNL1        0.0156
     13 C          50.6148   95.9360   -3.6111 C.ar    1  UNL1        0.0127
     14 C          50.6256   96.2087   -5.0862 C.ar    1  UNL1        0.0578
     15 CL         49.3563   96.1007   -5.8782 Cl      1  UNL1       -0.0822
     16 C          51.9057   96.5893   -5.7691 C.ar    1  UNL1        0.0127
     17 C          53.1750   96.6973   -4.9771 C.ar    1  UNL1        0.0156
     18 C          60.5700   94.4687   -1.0714 C.ar    1  UNL1       -0.0212
     19 C          60.7841   94.1182    0.3713 C.ar    1  UNL1       -0.0043
     20 C          62.1642   93.8092    0.8711 C.ar    1  UNL1        0.0035
     21 C          63.3301   93.8506   -0.0717 C.ar    1  UNL1        0.0714
     22 C          63.1160   94.2011   -1.5143 C.ar    1  UNL1        0.0035
     23 C          61.7360   94.5101   -2.0142 C.ar    1  UNL1       -0.0043
     24 C          64.7102   93.5415    0.4283 C.3     1  UNL1        0.4186
     25 F          66.0902   93.2324    0.9282 F       1  UNL1       -0.1659
     26 F          65.2695   94.6244   -0.4461 F       1  UNL1       -0.1659
     27 F          64.1509   92.4587    1.3027 F       1  UNL1       -0.1659
     28 C          59.5089   93.5774   -2.4124 C.3     1  UNL1        0.0116
     29 C          58.5555   92.4204   -2.4604 C.3     1  UNL1        0.0421
     30 O          58.2226   92.7367   -5.0175 O.co2   1  UNL1       -0.5492
     31 C          57.7843   92.1355   -3.7150 C.2     1  UNL1        0.0503
     32 O          56.5749   91.2495   -3.6671 O.co2   1  UNL1       -0.5492
@<TRIPOS>UNITY_ATOM_ATTR
30 1
charge -1
@<TRIPOS>BOND
     1    30    31   ar
     2    31    32   ar
     3    31    29    1
     4    29    28    1
     5    28     1    1
     6     1    18    1
     7    18    19   ar
     8    19    20   ar
     9    20    21   ar
    10    21    24    1
    11    24    25    1
    12    24    26    1
    13    24    27    1
    14    21    22   ar
    15    22    23   ar
    16     1     2    1
    17     2     3    1
    18     3     4    1
    19     4     5    1
    20     5     6   am
    21     6     7    2
    22     6     8   am
    23     8    11    1
    24    11    12   ar
    25    12    13   ar
    26    13    14   ar
    27    14    15    1
    28    14    16   ar
    29    16    17   ar
    30     5     9    1
    31     9     1    1
    32    23    18   ar
    33    17    11   ar
    34     8    10    1
@<TRIPOS>MOLECULE
*****
 32 34 0 0 0
SMALL
GASTEIGER

@<TRIPOS>ATOM
      1 C          59.2445   95.0367   -2.1458 C.3     1  UNL1        0.0377
      2 C          60.0650   95.1131   -3.3991 C.3     1  UNL1        0.0075
      3 C          59.3993   95.3808   -4.7163 C.3     1  UNL1        0.0219
      4 C          57.9129   95.5722   -4.7802 C.3     1  UNL1        0.0950
      5 N          57.0923   95.4959   -3.5270 N.am    1  UNL1       -0.2637
      6 C          55.6059   95.6873   -3.5909 C.2     1  UNL1        0.3077
      7 O          54.7854   95.6109   -2.3375 O.2     1  UNL1       -0.2522
      8 N          54.9402   95.9550   -4.9081 N.am    1  UNL1       -0.2681
      9 C          57.7581   95.2281   -2.2097 C.3     1  UNL1        0.0989
     10 H          55.4787   96.0051   -5.7307 H       1  UNL1        0.1564
     11 C          53.4538   96.1464   -4.9719 C.ar    1  UNL1        0.0516
     12 C          52.6427   96.1457   -3.7100 C.ar    1  UNL1        0.0156
     13 C          51.1564   96.3371   -3.7738 C.ar    1  UNL1        0.0127
     14 C          50.4811   96.5291   -5.0994 C.ar    1  UNL1        0.0578
     15 CL         48.9947   96.7205   -5.1631 Cl      1  UNL1       -0.0822
     16 C          51.2921   96.5297   -6.3612 C.ar    1  UNL1        0.0127
     17 C          52.7785   96.3384   -6.2974 C.ar    1  UNL1        0.0156
     18 C          60.6106   94.7889   -1.5781 C.ar    1  UNL1       -0.0212
     19 C          61.4724   93.7002   -2.1455 C.ar    1  UNL1       -0.0043
     20 C          62.8385   93.4525   -1.5778 C.ar    1  UNL1        0.0035
     21 C          63.3429   94.2934   -0.4427 C.ar    1  UNL1        0.0714
     22 C          62.4811   95.3822    0.1246 C.ar    1  UNL1        0.0035
     23 C          61.1150   95.6299   -0.4431 C.ar    1  UNL1       -0.0043
     24 C          64.7090   94.0456    0.1250 C.3     1  UNL1        0.4186
     25 F          66.0751   93.7978    0.6926 F       1  UNL1       -0.1659
     26 F          65.2571   95.1699   -0.7030 F       1  UNL1       -0.1659
     27 F          64.1610   92.9214    0.9529 F       1  UNL1       -0.1659
     28 C          58.8983   94.8743   -0.6954 C.3     1  UNL1        0.0116
     29 C          58.4351   93.5443   -0.1792 C.3     1  UNL1        0.0421
     30 O          60.2056   91.6759    0.1736 O.co2   1  UNL1       -0.5492
     31 C          59.3168   92.7461    0.7348 C.2     1  UNL1        0.0503
     32 O          59.3098   93.0180    2.2099 O.co2   1  UNL1       -0.5492
@<TRIPOS>UNITY_ATOM_ATTR
30 1
charge -1
@<TRIPOS>BOND
     1    30    31   ar
     2    31    32   ar
     3    31    29    1
     4    29    28    1
     5    28     1    1
     6     1    18    1
     7    18    19   ar
     8    19    20   ar
     9    20    21   ar
    10    21    24    1
    11    24    25    1
    12    24    26    1
    13    24    27    1
    14    21    22   ar
    15    22    23   ar
    16     1     2    1
    17     2     3    1
    18     3     4    1
    19     4     5    1
    20     5     6   am
    21     6     7    2
    22     6     8   am
    23     8    11    1
    24    11    12   ar
    25    12    13   ar
    26    13    14   ar
    27    14    15    1
    28    14    16   ar
    29    16    17   ar
    30     5     9    1
    31     9     1    1
    32    23    18   ar
    33    17    11   ar
    34     8    10    1
@<TRIPOS>MOLECULE
*****
 32 34 0 0 0
SMALL
GASTEIGER

@<TRIPOS>ATOM
      1 C          58.0607   94.7906   -1.5925 C.3     1  UNL1        0.0377
      2 C          58.9702   95.8384   -2.1625 C.3     1  UNL1        0.0075
      3 C          58.4336   96.8518   -3.1295 C.3     1  UNL1        0.0219
      4 C          56.9875   96.8173   -3.5265 C.3     1  UNL1        0.0950
      5 N          56.0780   95.7695   -2.9565 N.am    1  UNL1       -0.2637
      6 C          54.6319   95.7351   -3.3536 C.2     1  UNL1        0.3077
      7 O          53.7225   94.6872   -2.7835 O.2     1  UNL1       -0.2522
      8 N          54.0953   96.7484   -4.3206 N.am    1  UNL1       -0.2681
      9 C          56.6146   94.7562   -1.9895 C.3     1  UNL1        0.0989
     10 H          54.6922   97.4362   -4.6947 H       1  UNL1        0.1564
     11 C          52.6492   96.7139   -4.7176 C.ar    1  UNL1        0.0516
     12 C          52.2713   96.5986   -6.1647 C.ar    1  UNL1        0.0156
     13 C          50.8253   96.5641   -6.5617 C.ar    1  UNL1        0.0127
     14 C          49.7571   96.6449   -5.5117 C.ar    1  UNL1        0.0578
     15 CL         48.3109   96.6103   -5.9088 Cl      1  UNL1       -0.0822
     16 C          50.1349   96.7602   -4.0647 C.ar    1  UNL1        0.0127
     17 C          51.5810   96.7947   -3.6676 C.ar    1  UNL1        0.0156
     18 C          59.3460   94.4159   -0.9159 C.ar    1  UNL1       -0.0212
     19 C          60.1890   93.3055   -1.4693 C.ar    1  UNL1       -0.0043
     20 C          61.4742   92.9309   -0.7927 C.ar    1  UNL1        0.0035
     21 C          61.9164   93.6667    0.4374 C.ar    1  UNL1        0.0714
     22 C          61.0734   94.7771    0.9908 C.ar    1  UNL1        0.0035
     23 C          59.7882   95.1517    0.3142 C.ar    1  UNL1       -0.0043
     24 C          63.2017   93.2920    1.1140 C.3     1  UNL1        0.4186
     25 F          64.4869   92.9174    1.7906 F       1  UNL1       -0.1659
     26 F          62.6578   91.9213    1.3882 F       1  UNL1       -0.1659
     27 F          63.7456   94.6628    0.8398 F       1  UNL1       -0.1659
     28 C          57.5976   93.6127   -0.7875 C.3     1  UNL1        0.0116
     29 C          56.4566   92.7713   -1.2775 C.3     1  UNL1        0.0421
     30 O          57.8370   91.9952   -3.3372 O.co2   1  UNL1       -0.5492
     31 C          56.6610   91.8234   -2.4220 C.2     1  UNL1        0.0503
     32 O          55.6894   90.7038   -2.6512 O.co2   1  UNL1       -0.5492
@<TRIPOS>UNITY_ATOM_ATTR
30 1
charge -1
@<TRIPOS>BOND
     1    30    31   ar
     2    31    32   ar
     3    31    29    1
     4    29    28    1
     5    28     1    1
     6     1    18    1
     7    18    19   ar
     8    19    20   ar
     9    20    21   ar
    10    21    24    1
    11    24    25    1
    12    24    26    1
    13    24    27    1
    14    21    22   ar
    15    22    23   ar
    16     1     2    1
    17     2     3    1
    18     3     4    1
    19     4     5    1
    20     5     6   am
    21     6     7    2
    22     6     8   am
    23     8    11    1
    24    11    12   ar
    25    12    13   ar
    26    13    14   ar
    27    14    15    1
    28    14    16   ar
    29    16    17   ar
    30     5     9    1
    31     9     1    1
    32    23    18   ar
    33    17    11   ar
    34     8    10    1
@<TRIPOS>MOLECULE
*****
 32 34 0 0 0
SMALL
GASTEIGER

@<TRIPOS>ATOM
      1 C          61.0645   94.3109   -1.2584 C.3     1  UNL1        0.0377
      2 C          61.3667   95.6313   -1.9026 C.3     1  UNL1        0.0075
      3 C          60.6333   96.0455   -3.1438 C.3     1  UNL1        0.0219
      4 C          59.5977   95.1393   -3.7407 C.3     1  UNL1        0.0950
      5 N          59.2955   93.8188   -3.0965 N.am    1  UNL1       -0.2637
      6 C          58.2599   92.9126   -3.6935 C.2     1  UNL1        0.3077
      7 O          57.9578   91.5921   -3.0492 O.2     1  UNL1       -0.2522
      8 N          57.5266   93.3268   -4.9347 N.am    1  UNL1       -0.2681
      9 C          60.0289   93.4046   -1.8553 C.3     1  UNL1        0.0989
     10 H          57.7249   94.1935   -5.3575 H       1  UNL1        0.1564
     11 C          56.4911   92.4206   -5.5315 C.ar    1  UNL1        0.0516
     12 C          56.0753   92.5965   -6.9621 C.ar    1  UNL1        0.0156
     13 C          55.0398   91.6903   -7.5590 C.ar    1  UNL1        0.0127
     14 C          54.4200   90.6081   -6.7255 C.ar    1  UNL1        0.0578
     15 CL         53.3844   89.7018   -7.3225 Cl      1  UNL1       -0.0822
     16 C          54.8357   90.4321   -5.2950 C.ar    1  UNL1        0.0127
     17 C          55.8713   91.3384   -4.6981 C.ar    1  UNL1        0.0156
     18 C          62.1228   94.8199   -0.3250 C.ar    1  UNL1       -0.0212
     19 C          61.8795   96.0631    0.4781 C.ar    1  UNL1       -0.0043
     20 C          62.9378   96.5721    1.4114 C.ar    1  UNL1        0.0035
     21 C          64.2393   95.8378    1.5414 C.ar    1  UNL1        0.0714
     22 C          64.4825   94.5946    0.7383 C.ar    1  UNL1        0.0035
     23 C          63.4243   94.0856   -0.1950 C.ar    1  UNL1       -0.0043
     24 C          65.2976   96.3469    2.4747 C.3     1  UNL1        0.4186
     25 F          66.3558   96.8558    3.4080 F       1  UNL1       -0.1659
     26 F          66.0857   96.8549    1.3040 F       1  UNL1       -0.1659
     27 F          64.5094   95.8388    3.6455 F       1  UNL1       -0.1659
     28 C          61.1298   93.1672   -0.2900 C.3     1  UNL1        0.0116
     29 C          60.0244   92.9608    0.7027 C.3     1  UNL1        0.0421
     30 O          61.7687   92.8481    2.6249 O.co2   1  UNL1       -0.5492
     31 C          60.3413   92.8406    2.1639 C.2     1  UNL1        0.0503
     32 O          59.2308   92.7128    3.1641 O.co2   1  UNL1       -0.5492
@<TRIPOS>UNITY_ATOM_ATTR
30 1
charge -1
@<TRIPOS>BOND
     1    30    31   ar
     2    31    32   ar
     3    31    29    1
     4    29    28    1
     5    28     1    1
     6     1    18    1
     7    18    19   ar
     8    19    20   ar
     9    20    21   ar
    10    21    24    1
    11    24    25    1
    12    24    26    1
    13    24    27    1
    14    21    22   ar
    15    22    23   ar
    16     1     2    1
    17     2     3    1
    18     3     4    1
    19     4     5    1
    20     5     6   am
    21     6     7    2
    22     6     8   am
    23     8    11    1
    24    11    12   ar
    25    12    13   ar
    26    13    14   ar
    27    14    15    1
    28    14    16   ar
    29    16    17   ar
    30     5     9    1
    31     9     1    1
    32    23    18   ar
    33    17    11   ar
    34     8    10    1
@<TRIPOS>MOLECULE
*****
 32 34 0 0 0
SMALL
GASTEIGER

@<TRIPOS>ATOM
      1 C          65.6156   91.2389   13.3974 C.3     1  UNL1        0.0377
      2 C          65.3485   90.5938   14.7249 C.3     1  UNL1        0.0075
      3 C          64.2286   89.6061   14.8671 C.3     1  UNL1        0.0219
      4 C          63.3758   89.2634   13.6816 C.3     1  UNL1        0.0950
      5 N          63.6429   89.9085   12.3541 N.am    1  UNL1       -0.2637
      6 C          62.7901   89.5658   11.1686 C.2     1  UNL1        0.3077
      7 O          63.0572   90.2109    9.8410 O.2     1  UNL1       -0.2522
      8 N          61.6702   88.5781   11.3107 N.am    1  UNL1       -0.2681
      9 C          64.7627   90.8962   12.2119 C.3     1  UNL1        0.0989
     10 H          61.4949   88.1547   12.1821 H       1  UNL1        0.1564
     11 C          60.8174   88.2355   10.1252 C.ar    1  UNL1        0.0516
     12 C          60.6261   86.8015    9.7284 C.ar    1  UNL1        0.0156
     13 C          59.7734   86.4589    8.5430 C.ar    1  UNL1        0.0127
     14 C          59.1120   87.5500    7.7542 C.ar    1  UNL1        0.0578
     15 CL         58.2592   87.2074    6.5687 Cl      1  UNL1       -0.0822
     16 C          59.3033   88.9839    8.1511 C.ar    1  UNL1        0.0127
     17 C          60.1561   89.3266    9.3366 C.ar    1  UNL1        0.0156
     18 C          66.6909   91.8833   14.2211 C.ar    1  UNL1       -0.0212
     19 C          66.3472   92.5278   15.5313 C.ar    1  UNL1       -0.0043
     20 C          67.4225   93.1722   16.3550 C.ar    1  UNL1        0.0035
     21 C          68.8414   93.1722   15.8685 C.ar    1  UNL1        0.0714
     22 C          69.1850   92.5278   14.5583 C.ar    1  UNL1        0.0035
     23 C          68.1098   91.8833   13.7346 C.ar    1  UNL1       -0.0043
     24 C          69.9167   93.8166   16.6922 C.3     1  UNL1        0.4186
     25 F          70.9919   94.4610   17.5160 F       1  UNL1       -0.1659
     26 F          69.4820   95.1665   16.2036 F       1  UNL1       -0.1659
     27 F          70.3514   92.4667   17.1808 F       1  UNL1       -0.1659
     28 C          66.2561   92.1078   12.3558 C.3     1  UNL1        0.0116
     29 C          65.4231   93.0802   11.5746 C.3     1  UNL1        0.0421
     30 O          67.5364   94.1273   10.4849 O.co2   1  UNL1       -0.5492
     31 C          66.0811   94.2097   10.8388 C.2     1  UNL1        0.0503
     32 O          65.2837   95.4215   10.4571 O.co2   1  UNL1       -0.5492
@<TRIPOS>UNITY_ATOM_ATTR
30 1
charge -1
@<TRIPOS>BOND
     1    30    31   ar
     2    31    32   ar
     3    31    29    1
     4    29    28    1
     5    28     1    1
     6     1    18    1
     7    18    19   ar
     8    19    20   ar
     9    20    21   ar
    10    21    24    1
    11    24    25    1
    12    24    26    1
    13    24    27    1
    14    21    22   ar
    15    22    23   ar
    16     1     2    1
    17     2     3    1
    18     3     4    1
    19     4     5    1
    20     5     6   am
    21     6     7    2
    22     6     8   am
    23     8    11    1
    24    11    12   ar
    25    12    13   ar
    26    13    14   ar
    27    14    15    1
    28    14    16   ar
    29    16    17   ar
    30     5     9    1
    31     9     1    1
    32    23    18   ar
    33    17    11   ar
    34     8    10    1
