@<TRIPOS>MOLECULE
*****
 36 39 0 0 0
SMALL
GASTEIGER

@<TRIPOS>ATOM
      1 N          63.3533   85.0892   12.6185 N.am    1  UNL1       -0.2734
      2 C          63.3664   83.5931   12.5104 C.2     1  UNL1        0.2438
      3 O          63.0541   82.9331   11.2001 O.2     1  UNL1       -0.2731
      4 C          63.6919   82.7571   13.7125 C.3     1  UNL1        0.1488
      5 N          64.0042   83.4170   15.0228 N.am    1  UNL1       -0.2970
      6 C          63.9910   84.9130   15.1310 C.2     1  UNL1        0.2389
      7 O          64.3033   85.5730   16.4413 O.2     1  UNL1       -0.2734
      8 C          63.6656   85.7492   13.9288 C.3     1  UNL1        0.1314
      9 C          63.3402   86.5852   12.7267 C.3     1  UNL1        0.0445
     10 C          63.3271   88.0812   12.8349 C.3     1  UNL1        0.0745
     11 N          63.6394   88.7412   14.1452 N.3     1  UNL1       -0.2688
     12 C          63.9648   87.9051   15.3473 C.3     1  UNL1        0.0745
     13 C          63.9779   86.4091   15.2391 C.3     1  UNL1        0.0445
     14 H          64.2177   82.8683   15.8118 H       1  UNL1        0.1499
     15 C          63.0279   85.9252   11.4164 C.3     1  UNL1        0.0938
     16 C          61.7676   85.6698   10.6441 C.3     1  UNL1        0.0215
     17 C          62.6447   85.4167    8.2117 C.3     1  UNL1        0.0001
     18 C          61.6914   86.0346    9.1912 C.3     1  UNL1        0.0018
     19 C          63.7050   81.2610   13.6043 C.3     1  UNL1        0.0290
     20 C          62.4170   80.5093   13.4433 C.3     1  UNL1        0.0021
     21 C          61.1778   80.9869   14.1406 C.3     1  UNL1        0.0001
     22 C          62.3681   79.2801   12.5850 C.3     1  UNL1        0.0001
     23 C          63.6262   90.2372   14.2534 C.3     1  UNL1        0.0992
     24 C          64.5887   91.0561   13.4452 C.ar    1  UNL1       -0.0059
     25 C          64.1955   91.5488   12.0841 C.ar    1  UNL1        0.0002
     26 C          65.1580   92.3677   11.2759 C.ar    1  UNL1        0.0372
     27 C          66.5136   92.6938   11.8289 C.ar    1  UNL1        0.1453
     28 C          66.9068   92.2012   13.1900 C.ar    1  UNL1        0.0372
     29 C          65.9444   91.3823   13.9982 C.ar    1  UNL1        0.0002
     30 O          67.4760   93.5127   11.0207 O.3     1  UNL1       -0.4535
     31 C          66.9684   94.6226   10.1488 C.ar    1  UNL1        0.1453
     32 C          66.1236   95.7129   10.7383 C.ar    1  UNL1        0.0375
     33 C          65.6160   96.8229    9.8663 C.ar    1  UNL1        0.0031
     34 C          65.9531   96.8425    8.4049 C.ar    1  UNL1        0.0002
     35 C          66.7979   95.7522    7.8153 C.ar    1  UNL1        0.0031
     36 C          67.3056   94.6423    8.6872 C.ar    1  UNL1        0.0375
@<TRIPOS>BOND
     1    17    18    1
     2    18    16    1
     3    16    15    1
     4    15     1    1
     5     1     2   am
     6     2     3    2
     7     2     4    1
     8     4    19    1
     9    19    20    1
    10    20    21    1
    11    20    22    1
    12     4     5    1
    13     5     6   am
    14     6     7    2
    15     6     8    1
    16     8     9    1
    17     9    10    1
    18    10    11    1
    19    11    23    1
    20    23    24    1
    21    24    25   ar
    22    25    26   ar
    23    26    27   ar
    24    27    30    1
    25    30    31    1
    26    31    32   ar
    27    32    33   ar
    28    33    34   ar
    29    34    35   ar
    30    35    36   ar
    31    27    28   ar
    32    28    29   ar
    33    11    12    1
    34    12    13    1
    35     8     1    1
    36    29    24   ar
    37    13     8    1
    38    36    31   ar
    39     5    14    1
@<TRIPOS>MOLECULE
*****
 36 39 0 0 0
SMALL
GASTEIGER

@<TRIPOS>ATOM
      1 N          65.6156   92.6378   13.1633 N.am    1  UNL1       -0.2734
      2 C          66.0038   93.6099   12.0889 C.2     1  UNL1        0.2438
      3 O          66.9964   94.6955   12.3826 O.2     1  UNL1       -0.2731
      4 C          65.3993   93.4965   10.7208 C.3     1  UNL1        0.1488
      5 N          64.4067   92.4109   10.4271 N.am    1  UNL1       -0.2970
      6 C          64.0185   91.4388   11.5014 C.2     1  UNL1        0.2389
      7 O          63.0259   90.3533   11.2077 O.2     1  UNL1       -0.2734
      8 C          64.6230   91.5522   12.8696 C.3     1  UNL1        0.1314
      9 C          65.2274   91.6657   14.2377 C.3     1  UNL1        0.0445
     10 C          64.8393   90.6936   15.3120 C.3     1  UNL1        0.0745
     11 N          63.8466   89.6080   15.0183 N.3     1  UNL1       -0.2688
     12 C          63.2422   89.4946   13.6502 C.3     1  UNL1        0.0745
     13 C          63.6304   90.4667   12.5759 C.3     1  UNL1        0.0445
     14 H          64.0100   92.3365    9.5291 H       1  UNL1        0.1499
     15 C          66.2200   92.7512   14.5314 C.3     1  UNL1        0.0938
     16 C          67.6211   92.2738   14.7743 C.3     1  UNL1        0.0215
     17 C          69.1189   94.0082   15.9983 C.3     1  UNL1        0.0001
     18 C          68.3611   92.7137   16.0026 C.3     1  UNL1        0.0018
     19 C          65.7875   94.4686    9.6463 C.3     1  UNL1        0.0290
     20 C          67.1790   94.4516    9.0866 C.3     1  UNL1        0.0021
     21 C          67.9812   93.1844    9.1098 C.3     1  UNL1        0.0001
     22 C          67.7682   95.7017    8.5035 C.3     1  UNL1        0.0001
     23 C          63.4585   88.6359   16.0927 C.3     1  UNL1        0.0992
     24 C          63.5844   87.1609   15.8508 C.ar    1  UNL1       -0.0059
     25 C          62.6499   86.2065   16.5333 C.ar    1  UNL1        0.0002
     26 C          62.7758   84.7314   16.2913 C.ar    1  UNL1        0.0372
     27 C          63.8362   84.2109   15.3668 C.ar    1  UNL1        0.1453
     28 C          64.7707   85.1654   14.6843 C.ar    1  UNL1        0.0372
     29 C          64.6448   86.6403   14.9263 C.ar    1  UNL1        0.0002
     30 O          63.9621   82.7359   15.1249 O.3     1  UNL1       -0.4535
     31 C          63.6877   82.1734   13.7617 C.ar    1  UNL1        0.1453
     32 C          62.9462   80.8772   13.6205 C.ar    1  UNL1        0.0375
     33 C          62.6718   80.3147   12.2574 C.ar    1  UNL1        0.0031
     34 C          63.1389   81.0484   11.0353 C.ar    1  UNL1        0.0002
     35 C          63.8805   82.3446   11.1764 C.ar    1  UNL1        0.0031
     36 C          64.1549   82.9072   12.5396 C.ar    1  UNL1        0.0375
@<TRIPOS>BOND
     1    17    18    1
     2    18    16    1
     3    16    15    1
     4    15     1    1
     5     1     2   am
     6     2     3    2
     7     2     4    1
     8     4    19    1
     9    19    20    1
    10    20    21    1
    11    20    22    1
    12     4     5    1
    13     5     6   am
    14     6     7    2
    15     6     8    1
    16     8     9    1
    17     9    10    1
    18    10    11    1
    19    11    23    1
    20    23    24    1
    21    24    25   ar
    22    25    26   ar
    23    26    27   ar
    24    27    30    1
    25    30    31    1
    26    31    32   ar
    27    32    33   ar
    28    33    34   ar
    29    34    35   ar
    30    35    36   ar
    31    27    28   ar
    32    28    29   ar
    33    11    12    1
    34    12    13    1
    35     8     1    1
    36    29    24   ar
    37    13     8    1
    38    36    31   ar
    39     5    14    1
@<TRIPOS>MOLECULE
*****
 36 39 0 0 0
SMALL
GASTEIGER

@<TRIPOS>ATOM
      1 N          64.5043   92.1449   12.0818 N.am    1  UNL1       -0.2734
      2 C          65.1121   93.0935   11.0914 C.2     1  UNL1        0.2438
      3 O          64.5564   93.1839    9.7010 O.2     1  UNL1       -0.2731
      4 C          66.2755   93.9517   11.4914 C.3     1  UNL1        0.1488
      5 N          66.8311   93.8613   12.8817 N.am    1  UNL1       -0.2970
      6 C          66.2234   92.9127   13.8721 C.2     1  UNL1        0.2389
      7 O          66.7791   92.8223   15.2624 O.2     1  UNL1       -0.2734
      8 C          65.0600   92.0545   13.4721 C.3     1  UNL1        0.1314
      9 C          63.8966   91.1963   13.0721 C.3     1  UNL1        0.0445
     10 C          63.2889   90.2478   14.0625 C.3     1  UNL1        0.0745
     11 N          63.8445   90.1574   15.4528 N.3     1  UNL1       -0.2688
     12 C          65.0079   91.0155   15.8528 C.3     1  UNL1        0.0745
     13 C          65.6156   91.9641   14.8625 C.3     1  UNL1        0.0445
     14 H          67.5947   94.4245   13.1442 H       1  UNL1        0.1499
     15 C          63.3409   91.2867   11.6818 C.3     1  UNL1        0.0938
     16 C          63.3998   90.4866   10.4144 C.3     1  UNL1        0.0215
     17 C          62.3929   88.1763   11.0458 C.3     1  UNL1        0.0001
     18 C          62.4015   89.3941   10.1700 C.3     1  UNL1        0.0018
     19 C          66.8832   94.9003   10.5010 C.3     1  UNL1        0.0290
     20 C          67.5185   94.3722    9.2490 C.3     1  UNL1        0.0021
     21 C          68.4021   93.1616    9.3096 C.3     1  UNL1        0.0001
     22 C          67.2702   95.0546    7.9365 C.3     1  UNL1        0.0001
     23 C          63.2368   89.2087   16.4432 C.3     1  UNL1        0.0992
     24 C          63.3711   87.7282   16.2435 C.ar    1  UNL1       -0.0059
     25 C          62.6023   86.7809   17.1161 C.ar    1  UNL1        0.0002
     26 C          62.7367   85.3003   16.9164 C.ar    1  UNL1        0.0372
     27 C          63.6399   84.7671   15.8441 C.ar    1  UNL1        0.1453
     28 C          64.4087   85.7144   14.9714 C.ar    1  UNL1        0.0372
     29 C          64.2743   87.1949   15.1711 C.ar    1  UNL1        0.0002
     30 O          63.7742   83.2865   15.6444 O.3     1  UNL1       -0.4535
     31 C          63.4950   82.6827   14.3000 C.ar    1  UNL1        0.1453
     32 C          62.3672   81.7075   14.1354 C.ar    1  UNL1        0.0375
     33 C          62.0880   81.1036   12.7911 C.ar    1  UNL1        0.0031
     34 C          62.9365   81.4749   11.6112 C.ar    1  UNL1        0.0002
     35 C          64.0643   82.4502   11.7757 C.ar    1  UNL1        0.0031
     36 C          64.3435   83.0540   13.1201 C.ar    1  UNL1        0.0375
@<TRIPOS>BOND
     1    17    18    1
     2    18    16    1
     3    16    15    1
     4    15     1    1
     5     1     2   am
     6     2     3    2
     7     2     4    1
     8     4    19    1
     9    19    20    1
    10    20    21    1
    11    20    22    1
    12     4     5    1
    13     5     6   am
    14     6     7    2
    15     6     8    1
    16     8     9    1
    17     9    10    1
    18    10    11    1
    19    11    23    1
    20    23    24    1
    21    24    25   ar
    22    25    26   ar
    23    26    27   ar
    24    27    30    1
    25    30    31    1
    26    31    32   ar
    27    32    33   ar
    28    33    34   ar
    29    34    35   ar
    30    35    36   ar
    31    27    28   ar
    32    28    29   ar
    33    11    12    1
    34    12    13    1
    35     8     1    1
    36    29    24   ar
    37    13     8    1
    38    36    31   ar
    39     5    14    1
@<TRIPOS>MOLECULE
*****
 36 39 0 0 0
SMALL
GASTEIGER

@<TRIPOS>ATOM
      1 N          63.9089   85.0028   14.1135 N.am    1  UNL1       -0.2734
      2 C          63.9287   83.5106   13.9615 C.2     1  UNL1        0.2438
      3 O          64.4935   82.6527   15.0547 O.2     1  UNL1       -0.2731
      4 C          63.3836   82.8763   12.7163 C.3     1  UNL1        0.1488
      5 N          62.8188   83.7341   11.6231 N.am    1  UNL1       -0.2970
      6 C          62.7990   85.2262   11.7750 C.2     1  UNL1        0.2389
      7 O          62.2342   86.0840   10.6818 O.2     1  UNL1       -0.2734
      8 C          63.3441   85.8606   13.0203 C.3     1  UNL1        0.1314
      9 C          63.8892   86.4949   14.2655 C.3     1  UNL1        0.0445
     10 C          63.8694   87.9870   14.4174 C.3     1  UNL1        0.0745
     11 N          63.3045   88.8448   13.3242 N.3     1  UNL1       -0.2688
     12 C          62.7595   88.2105   12.0790 C.3     1  UNL1        0.0745
     13 C          62.7793   86.7184   11.9271 C.3     1  UNL1        0.0445
     14 H          62.4611   83.3177   10.8058 H       1  UNL1        0.1499
     15 C          64.4540   85.6371   15.3587 C.3     1  UNL1        0.0938
     16 C          63.8686   85.2897   16.6953 C.3     1  UNL1        0.0215
     17 C          62.7205   87.2539   17.9498 C.3     1  UNL1        0.0001
     18 C          62.6223   85.9765   17.1696 C.3     1  UNL1        0.0018
     19 C          63.4034   81.3841   12.5643 C.3     1  UNL1        0.0290
     20 C          62.3342   80.5506   13.2062 C.3     1  UNL1        0.0021
     21 C          61.3295   81.1913   14.1171 C.3     1  UNL1        0.0001
     22 C          62.2698   79.0763   12.9372 C.3     1  UNL1        0.0001
     23 C          63.2848   90.3370   13.4762 C.3     1  UNL1        0.0992
     24 C          64.3443   91.1718   12.8201 C.ar    1  UNL1       -0.0059
     25 C          65.5759   91.5572   13.5847 C.ar    1  UNL1        0.0002
     26 C          66.6354   92.3921   12.9285 C.ar    1  UNL1        0.0372
     27 C          66.4633   92.8415   11.5078 C.ar    1  UNL1        0.1453
     28 C          65.2316   92.4561   10.7433 C.ar    1  UNL1        0.0372
     29 C          64.1721   91.6213   11.3994 C.ar    1  UNL1        0.0002
     30 O          67.5227   93.6763   10.8517 O.3     1  UNL1       -0.4535
     31 C          67.1437   94.6844    9.8077 C.ar    1  UNL1        0.1453
     32 C          67.6431   94.5319    8.4015 C.ar    1  UNL1        0.0375
     33 C          67.2640   95.5400    7.3575 C.ar    1  UNL1        0.0031
     34 C          66.3856   96.7007    7.7196 C.ar    1  UNL1        0.0002
     35 C          65.8861   96.8532    9.1258 C.ar    1  UNL1        0.0031
     36 C          66.2652   95.8451   10.1698 C.ar    1  UNL1        0.0375
@<TRIPOS>BOND
     1    17    18    1
     2    18    16    1
     3    16    15    1
     4    15     1    1
     5     1     2   am
     6     2     3    2
     7     2     4    1
     8     4    19    1
     9    19    20    1
    10    20    21    1
    11    20    22    1
    12     4     5    1
    13     5     6   am
    14     6     7    2
    15     6     8    1
    16     8     9    1
    17     9    10    1
    18    10    11    1
    19    11    23    1
    20    23    24    1
    21    24    25   ar
    22    25    26   ar
    23    26    27   ar
    24    27    30    1
    25    30    31    1
    26    31    32   ar
    27    32    33   ar
    28    33    34   ar
    29    34    35   ar
    30    35    36   ar
    31    27    28   ar
    32    28    29   ar
    33    11    12    1
    34    12    13    1
    35     8     1    1
    36    29    24   ar
    37    13     8    1
    38    36    31   ar
    39     5    14    1
@<TRIPOS>MOLECULE
*****
 36 39 0 0 0
SMALL
GASTEIGER

@<TRIPOS>ATOM
      1 N          62.1798   87.3309   11.3713 N.am    1  UNL1       -0.2734
      2 C          63.0344   87.3170   12.6040 C.2     1  UNL1        0.2438
      3 O          63.4756   86.0113   13.1960 O.2     1  UNL1       -0.2731
      4 C          63.4478   88.6087   13.2446 C.3     1  UNL1        0.1488
      5 N          63.0067   89.9145   12.6526 N.am    1  UNL1       -0.2970
      6 C          62.1521   89.9284   11.4200 C.2     1  UNL1        0.2389
      7 O          61.7109   91.2342   10.8280 O.2     1  UNL1       -0.2734
      8 C          61.7387   88.6367   10.7792 C.3     1  UNL1        0.1314
      9 C          61.3253   87.3449   10.1386 C.3     1  UNL1        0.0445
     10 C          60.4707   87.3589    8.9059 C.3     1  UNL1        0.0745
     11 N          60.0296   88.6646    8.3139 N.3     1  UNL1       -0.2688
     12 C          60.4429   89.9564    8.9546 C.3     1  UNL1        0.0745
     13 C          61.2975   89.9424   10.1872 C.3     1  UNL1        0.0445
     14 H          63.2780   90.7623   13.0731 H       1  UNL1        0.1499
     15 C          61.7664   86.0392   10.7306 C.3     1  UNL1        0.0938
     16 C          62.7965   85.1552   10.0923 C.3     1  UNL1        0.0215
     17 C          64.3613   83.0916   10.2999 C.3     1  UNL1        0.0001
     18 C          63.1031   83.8118   10.6850 C.3     1  UNL1        0.0018
     19 C          64.3024   88.5948   14.4774 C.3     1  UNL1        0.0290
     20 C          63.7887   89.1940   15.7529 C.3     1  UNL1        0.0021
     21 C          63.1752   88.3139   16.8011 C.3     1  UNL1        0.0001
     22 C          63.8886   90.6733   15.9802 C.3     1  UNL1        0.0001
     23 C          59.1750   88.6786    7.0812 C.3     1  UNL1        0.0992
     24 C          59.2420   89.8407    6.1352 C.ar    1  UNL1       -0.0059
     25 C          57.9938   90.5949    5.7842 C.ar    1  UNL1        0.0002
     26 C          58.0609   91.7572    4.8382 C.ar    1  UNL1        0.0372
     27 C          59.3760   92.1651    4.2433 C.ar    1  UNL1        0.1453
     28 C          60.6242   91.4108    4.5944 C.ar    1  UNL1        0.0372
     29 C          60.5572   90.2487    5.5403 C.ar    1  UNL1        0.0002
     30 O          59.4430   93.3272    3.2973 O.3     1  UNL1       -0.4535
     31 C          60.1226   93.1747    1.9688 C.ar    1  UNL1        0.1453
     32 C          59.3158   92.8507    0.7465 C.ar    1  UNL1        0.0375
     33 C          59.9954   92.6982   -0.5820 C.ar    1  UNL1        0.0031
     34 C          61.4817   92.8697   -0.6882 C.ar    1  UNL1        0.0002
     35 C          62.2886   93.1937    0.5342 C.ar    1  UNL1        0.0031
     36 C          61.6090   93.3462    1.8627 C.ar    1  UNL1        0.0375
@<TRIPOS>BOND
     1    17    18    1
     2    18    16    1
     3    16    15    1
     4    15     1    1
     5     1     2   am
     6     2     3    2
     7     2     4    1
     8     4    19    1
     9    19    20    1
    10    20    21    1
    11    20    22    1
    12     4     5    1
    13     5     6   am
    14     6     7    2
    15     6     8    1
    16     8     9    1
    17     9    10    1
    18    10    11    1
    19    11    23    1
    20    23    24    1
    21    24    25   ar
    22    25    26   ar
    23    26    27   ar
    24    27    30    1
    25    30    31    1
    26    31    32   ar
    27    32    33   ar
    28    33    34   ar
    29    34    35   ar
    30    35    36   ar
    31    27    28   ar
    32    28    29   ar
    33    11    12    1
    34    12    13    1
    35     8     1    1
    36    29    24   ar
    37    13     8    1
    38    36    31   ar
    39     5    14    1
@<TRIPOS>MOLECULE
*****
 36 39 0 0 0
SMALL
GASTEIGER

@<TRIPOS>ATOM
      1 N          65.2966   92.4760   12.2838 N.am    1  UNL1       -0.2734
      2 C          66.1519   93.3645   13.1376 C.2     1  UNL1        0.2438
      3 O          66.8814   94.5211   12.5209 O.2     1  UNL1       -0.2731
      4 C          66.2777   93.0965   14.6081 C.3     1  UNL1        0.1488
      5 N          65.5482   91.9400   15.2248 N.am    1  UNL1       -0.2970
      6 C          64.6929   91.0515   14.3710 C.2     1  UNL1        0.2389
      7 O          63.9634   89.8950   14.9877 O.2     1  UNL1       -0.2734
      8 C          64.5671   91.3195   12.9005 C.3     1  UNL1        0.1314
      9 C          64.4412   91.5875   11.4300 C.3     1  UNL1        0.0445
     10 C          63.5859   90.6990   10.5763 C.3     1  UNL1        0.0745
     11 N          62.8564   89.5425   11.1930 N.3     1  UNL1       -0.2688
     12 C          62.9823   89.2745   12.6634 C.3     1  UNL1        0.0745
     13 C          63.8376   90.1630   13.5172 C.3     1  UNL1        0.0445
     14 H          65.6308   91.7641   16.1899 H       1  UNL1        0.1499
     15 C          65.1707   92.7440   10.8133 C.3     1  UNL1        0.0938
     16 C          66.3772   93.1476   10.0186 C.3     1  UNL1        0.0215
     17 C          68.8251   92.6707    9.2907 C.3     1  UNL1        0.0001
     18 C          67.5191   92.1897    9.8500 C.3     1  UNL1        0.0018
     19 C          67.1331   93.9851   15.4619 C.3     1  UNL1        0.0290
     20 C          68.5135   93.5471   15.8525 C.3     1  UNL1        0.0021
     21 C          68.8104   92.0900   16.0493 C.3     1  UNL1        0.0001
     22 C          69.5970   94.5661   16.0463 C.3     1  UNL1        0.0001
     23 C          62.0011   88.6540   10.3391 C.3     1  UNL1        0.0992
     24 C          62.2933   87.1850   10.2575 C.ar    1  UNL1       -0.0059
     25 C          62.7474   86.5815    8.9615 C.ar    1  UNL1        0.0002
     26 C          63.0396   85.1124    8.8799 C.ar    1  UNL1        0.0372
     27 C          62.8776   84.2470   10.0942 C.ar    1  UNL1        0.1453
     28 C          62.4234   84.8504   11.3902 C.ar    1  UNL1        0.0372
     29 C          62.1313   86.3194   11.4718 C.ar    1  UNL1        0.0002
     30 O          63.1698   82.7780   10.0126 O.3     1  UNL1       -0.4535
     31 C          63.2877   81.9658   11.2682 C.ar    1  UNL1        0.1453
     32 C          64.2365   82.3902   12.3496 C.ar    1  UNL1        0.0375
     33 C          64.3544   81.5780   13.6052 C.ar    1  UNL1        0.0031
     34 C          63.5235   80.3414   13.7793 C.ar    1  UNL1        0.0002
     35 C          62.5746   79.9170   12.6978 C.ar    1  UNL1        0.0031
     36 C          62.4567   80.7292   11.4423 C.ar    1  UNL1        0.0375
@<TRIPOS>BOND
     1    17    18    1
     2    18    16    1
     3    16    15    1
     4    15     1    1
     5     1     2   am
     6     2     3    2
     7     2     4    1
     8     4    19    1
     9    19    20    1
    10    20    21    1
    11    20    22    1
    12     4     5    1
    13     5     6   am
    14     6     7    2
    15     6     8    1
    16     8     9    1
    17     9    10    1
    18    10    11    1
    19    11    23    1
    20    23    24    1
    21    24    25   ar
    22    25    26   ar
    23    26    27   ar
    24    27    30    1
    25    30    31    1
    26    31    32   ar
    27    32    33   ar
    28    33    34   ar
    29    34    35   ar
    30    35    36   ar
    31    27    28   ar
    32    28    29   ar
    33    11    12    1
    34    12    13    1
    35     8     1    1
    36    29    24   ar
    37    13     8    1
    38    36    31   ar
    39     5    14    1
@<TRIPOS>MOLECULE
*****
 36 39 0 0 0
SMALL
GASTEIGER

@<TRIPOS>ATOM
      1 N          63.0557   85.2882   11.4469 N.am    1  UNL1       -0.2734
      2 C          62.9915   83.9752   10.7244 C.2     1  UNL1        0.2438
      3 O          62.3676   83.8982    9.3625 O.2     1  UNL1       -0.2731
      4 C          63.5513   82.7392   11.3639 C.3     1  UNL1        0.1488
      5 N          64.1752   82.8161   12.7258 N.am    1  UNL1       -0.2970
      6 C          64.2394   84.1291   13.4482 C.2     1  UNL1        0.2389
      7 O          64.8633   84.2060   14.8101 O.2     1  UNL1       -0.2734
      8 C          63.6796   85.3652   12.8088 C.3     1  UNL1        0.1314
      9 C          63.1199   86.6012   12.1693 C.3     1  UNL1        0.0445
     10 C          63.1841   87.9141   12.8917 C.3     1  UNL1        0.0745
     11 N          63.8080   87.9911   14.2537 N.3     1  UNL1       -0.2688
     12 C          64.3677   86.7551   14.8931 C.3     1  UNL1        0.0745
     13 C          64.3035   85.4421   14.1707 C.3     1  UNL1        0.0445
     14 H          64.5426   82.0049   13.1455 H       1  UNL1        0.1499
     15 C          62.4960   86.5242   10.8074 C.3     1  UNL1        0.0938
     16 C          61.0649   86.5543   10.3589 C.3     1  UNL1        0.0215
     17 C          59.9705   86.2829    8.0183 C.3     1  UNL1        0.0001
     18 C          60.7114   87.1224    9.0165 C.3     1  UNL1        0.0018
     19 C          63.4871   81.4261   10.6414 C.3     1  UNL1        0.0290
     20 C          62.9021   80.2238   11.3213 C.3     1  UNL1        0.0021
     21 C          62.7317   78.9416   10.5618 C.3     1  UNL1        0.0001
     22 C          62.4876   80.3037   12.7607 C.3     1  UNL1        0.0001
     23 C          63.8721   89.3041   14.9761 C.3     1  UNL1        0.0992
     24 C          64.5296   90.4859   14.3271 C.ar    1  UNL1       -0.0059
     25 C          64.0284   90.9916   13.0069 C.ar    1  UNL1        0.0002
     26 C          64.6859   92.1735   12.3579 C.ar    1  UNL1        0.0372
     27 C          65.8445   92.8495   13.0292 C.ar    1  UNL1        0.1453
     28 C          66.3457   92.3437   14.3494 C.ar    1  UNL1        0.0372
     29 C          65.6882   91.1619   14.9984 C.ar    1  UNL1        0.0002
     30 O          66.5019   94.0312   12.3802 O.3     1  UNL1       -0.4535
     31 C          67.0698   93.9078   10.9974 C.ar    1  UNL1        0.1453
     32 C          67.0240   95.0784   10.0606 C.ar    1  UNL1        0.0375
     33 C          67.5919   94.9550    8.6777 C.ar    1  UNL1        0.0031
     34 C          68.2057   93.6611    8.2317 C.ar    1  UNL1        0.0002
     35 C          68.2515   92.4904    9.1685 C.ar    1  UNL1        0.0031
     36 C          67.6836   92.6138   10.5514 C.ar    1  UNL1        0.0375
@<TRIPOS>BOND
     1    17    18    1
     2    18    16    1
     3    16    15    1
     4    15     1    1
     5     1     2   am
     6     2     3    2
     7     2     4    1
     8     4    19    1
     9    19    20    1
    10    20    21    1
    11    20    22    1
    12     4     5    1
    13     5     6   am
    14     6     7    2
    15     6     8    1
    16     8     9    1
    17     9    10    1
    18    10    11    1
    19    11    23    1
    20    23    24    1
    21    24    25   ar
    22    25    26   ar
    23    26    27   ar
    24    27    30    1
    25    30    31    1
    26    31    32   ar
    27    32    33   ar
    28    33    34   ar
    29    34    35   ar
    30    35    36   ar
    31    27    28   ar
    32    28    29   ar
    33    11    12    1
    34    12    13    1
    35     8     1    1
    36    29    24   ar
    37    13     8    1
    38    36    31   ar
    39     5    14    1
@<TRIPOS>MOLECULE
*****
 36 39 0 0 0
SMALL
GASTEIGER

@<TRIPOS>ATOM
      1 N          63.1906   84.3678   12.1165 N.am    1  UNL1       -0.2734
      2 C          63.5591   82.9145   12.0674 C.2     1  UNL1        0.2438
      3 O          63.8088   82.1608   13.3400 O.2     1  UNL1       -0.2731
      4 C          63.6779   82.2151   10.7458 C.3     1  UNL1        0.1488
      5 N          63.4282   82.9689    9.4732 N.am    1  UNL1       -0.2970
      6 C          63.0598   84.4221    9.5223 C.2     1  UNL1        0.2389
      7 O          62.8101   85.1759    8.2497 O.2     1  UNL1       -0.2734
      8 C          62.9409   85.1216   10.8439 C.3     1  UNL1        0.1314
      9 C          62.8221   85.8210   12.1655 C.3     1  UNL1        0.0445
     10 C          62.4537   87.2741   12.2145 C.3     1  UNL1        0.0745
     11 N          62.2040   88.0279   10.9419 N.3     1  UNL1       -0.2688
     12 C          62.3228   87.3285    9.6203 C.3     1  UNL1        0.0745
     13 C          62.6913   85.8754    9.5713 C.3     1  UNL1        0.0445
     14 H          63.5062   82.5099    8.6058 H       1  UNL1        0.1499
     15 C          63.0718   85.0672   13.4381 C.3     1  UNL1        0.0938
     16 C          64.3063   85.4179   14.2147 C.3     1  UNL1        0.0215
     17 C          64.5403   87.9079   14.9185 C.3     1  UNL1        0.0001
     18 C          64.2502   86.4795   15.2729 C.3     1  UNL1        0.0018
     19 C          64.0464   80.7619   10.6968 C.3     1  UNL1        0.0290
     20 C          62.9946   79.7139   10.9097 C.3     1  UNL1        0.0021
     21 C          62.3781   79.5346   12.2653 C.3     1  UNL1        0.0001
     22 C          62.5594   78.8451    9.7670 C.3     1  UNL1        0.0001
     23 C          61.8355   89.4812   10.9910 C.3     1  UNL1        0.0992
     24 C          62.8897   90.5135   11.2609 C.ar    1  UNL1       -0.0059
     25 C          63.4567   90.6633   12.6415 C.ar    1  UNL1        0.0002
     26 C          64.5109   91.6957   12.9114 C.ar    1  UNL1        0.0372
     27 C          64.9981   92.5783   11.8008 C.ar    1  UNL1        0.1453
     28 C          64.4311   92.4285   10.4201 C.ar    1  UNL1        0.0372
     29 C          63.3769   91.3962   10.1502 C.ar    1  UNL1        0.0002
     30 O          66.0523   93.6106   12.0707 O.3     1  UNL1       -0.4535
     31 C          66.5278   94.5043   10.9637 C.ar    1  UNL1        0.1453
     32 C          66.1747   95.9621   10.9727 C.ar    1  UNL1        0.0375
     33 C          66.6502   96.8557    9.8658 C.ar    1  UNL1        0.0031
     34 C          67.4787   96.2916    8.7499 C.ar    1  UNL1        0.0002
     35 C          67.8318   94.8337    8.7409 C.ar    1  UNL1        0.0031
     36 C          67.3563   93.9401    9.8478 C.ar    1  UNL1        0.0375
@<TRIPOS>BOND
     1    17    18    1
     2    18    16    1
     3    16    15    1
     4    15     1    1
     5     1     2   am
     6     2     3    2
     7     2     4    1
     8     4    19    1
     9    19    20    1
    10    20    21    1
    11    20    22    1
    12     4     5    1
    13     5     6   am
    14     6     7    2
    15     6     8    1
    16     8     9    1
    17     9    10    1
    18    10    11    1
    19    11    23    1
    20    23    24    1
    21    24    25   ar
    22    25    26   ar
    23    26    27   ar
    24    27    30    1
    25    30    31    1
    26    31    32   ar
    27    32    33   ar
    28    33    34   ar
    29    34    35   ar
    30    35    36   ar
    31    27    28   ar
    32    28    29   ar
    33    11    12    1
    34    12    13    1
    35     8     1    1
    36    29    24   ar
    37    13     8    1
    38    36    31   ar
    39     5    14    1
@<TRIPOS>MOLECULE
*****
 36 39 0 0 0
SMALL
GASTEIGER

@<TRIPOS>ATOM
      1 N          63.5250   84.9451   13.5861 N.am    1  UNL1       -0.2734
      2 C          63.7006   83.5008   13.9515 C.2     1  UNL1        0.2438
      3 O          64.3360   83.1298   15.2586 O.2     1  UNL1       -0.2731
      4 C          63.2408   82.4277   13.0097 C.3     1  UNL1        0.1488
      5 N          62.6054   82.7987   11.7026 N.am    1  UNL1       -0.2970
      6 C          62.4298   84.2429   11.3372 C.2     1  UNL1        0.2389
      7 O          61.7944   84.6139   10.0301 O.2     1  UNL1       -0.2734
      8 C          62.8896   85.3161   12.2790 C.3     1  UNL1        0.1314
      9 C          63.3494   86.3892   13.2207 C.3     1  UNL1        0.0445
     10 C          63.1738   87.8333   12.8554 C.3     1  UNL1        0.0745
     11 N          62.5384   88.2044   11.5482 N.3     1  UNL1       -0.2688
     12 C          62.0786   87.1313   10.6065 C.3     1  UNL1        0.0745
     13 C          62.2542   85.6871   10.9718 C.3     1  UNL1        0.0445
     14 H          62.3036   82.0944   11.0845 H       1  UNL1        0.1499
     15 C          63.9848   86.0182   14.5279 C.3     1  UNL1        0.0938
     16 C          63.9349   85.7878   16.0092 C.3     1  UNL1        0.0215
     17 C          63.1556   88.0913   16.9240 C.3     1  UNL1        0.0001
     18 C          63.0073   86.5998   16.8637 C.3     1  UNL1        0.0018
     19 C          63.4164   80.9834   13.3751 C.3     1  UNL1        0.0290
     20 C          62.2142   80.1098   13.5785 C.3     1  UNL1        0.0021
     21 C          60.9390   80.6993   14.1040 C.3     1  UNL1        0.0001
     22 C          62.2873   78.6466   13.2565 C.3     1  UNL1        0.0001
     23 C          62.3628   89.6486   11.1829 C.3     1  UNL1        0.0992
     24 C          63.3921   90.6577   11.5979 C.ar    1  UNL1       -0.0059
     25 C          63.8486   90.7199   13.0254 C.ar    1  UNL1        0.0002
     26 C          64.8779   91.7291   13.4403 C.ar    1  UNL1        0.0372
     27 C          65.4507   92.6760   12.4278 C.ar    1  UNL1        0.1453
     28 C          64.9942   92.6138   11.0003 C.ar    1  UNL1        0.0372
     29 C          63.9649   91.6047   10.5853 C.ar    1  UNL1        0.0002
     30 O          66.4800   93.6851   12.8428 O.3     1  UNL1       -0.4535
     31 C          67.4709   93.3474   13.9171 C.ar    1  UNL1        0.1453
     32 C          67.4768   94.1213   15.2020 C.ar    1  UNL1        0.0375
     33 C          68.4677   93.7837   16.2763 C.ar    1  UNL1        0.0031
     34 C          69.4526   92.6721   16.0658 C.ar    1  UNL1        0.0002
     35 C          69.4467   91.8982   14.7808 C.ar    1  UNL1        0.0031
     36 C          68.4558   92.2358   13.7065 C.ar    1  UNL1        0.0375
@<TRIPOS>BOND
     1    17    18    1
     2    18    16    1
     3    16    15    1
     4    15     1    1
     5     1     2   am
     6     2     3    2
     7     2     4    1
     8     4    19    1
     9    19    20    1
    10    20    21    1
    11    20    22    1
    12     4     5    1
    13     5     6   am
    14     6     7    2
    15     6     8    1
    16     8     9    1
    17     9    10    1
    18    10    11    1
    19    11    23    1
    20    23    24    1
    21    24    25   ar
    22    25    26   ar
    23    26    27   ar
    24    27    30    1
    25    30    31    1
    26    31    32   ar
    27    32    33   ar
    28    33    34   ar
    29    34    35   ar
    30    35    36   ar
    31    27    28   ar
    32    28    29   ar
    33    11    12    1
    34    12    13    1
    35     8     1    1
    36    29    24   ar
    37    13     8    1
    38    36    31   ar
    39     5    14    1
