@<TRIPOS>MOLECULE
*****
 43 46 0 0 0
SMALL
GASTEIGER

@<TRIPOS>ATOM
      1 C          62.1536   87.2151   10.9331 C.ar    1  UNL1        0.0703
      2 C          62.3206   88.6631   11.2872 C.ar    1  UNL1        0.0465
      3 C          61.7313   89.7237   10.4053 C.3     1  UNL1        0.0503
      4 N          63.0771   89.0505   12.5233 N.ar    1  UNL1       -0.2805
      5 C          63.6665   87.9898   13.4052 C.ar    1  UNL1        0.3338
      6 O          64.1785   88.1262   14.2344 O.2     1  UNL1       -0.2462
      7 N          63.4994   86.5418   13.0510 N.ar    1  UNL1       -0.2470
      8 C          62.7429   86.1545   11.8150 C.ar    1  UNL1        0.2654
      9 O          62.5758   84.7064   11.4608 O.2     1  UNL1       -0.2668
     10 C          61.3259   85.6661    7.3742 C.ar    1  UNL1        0.1660
     11 C          59.8844   86.0529    7.2250 C.ar    1  UNL1        0.0392
     12 C          59.1992   86.8271    8.3118 C.ar    1  UNL1        0.0033
     13 C          59.9556   87.2145    9.5478 C.ar    1  UNL1        0.0026
     14 C          61.3971   86.8277    9.6970 C.ar    1  UNL1        0.0362
     15 C          62.0823   86.0535    8.6102 C.ar    1  UNL1        0.1739
     16 F          63.5239   85.6667    8.7595 F       1  UNL1       -0.2010
     17 C          61.2520   83.8572    5.5108 C.3     1  UNL1        0.2526
     18 O          62.0111   84.8919    6.2874 O.3     1  UNL1       -0.4692
     19 C          63.2442   90.4984   12.8774 C.3     1  UNL1        0.1413
     20 C          64.4842   91.2336   12.4630 C.ar    1  UNL1        0.0554
     21 C          65.6542   91.3174   13.3980 C.ar    1  UNL1        0.1401
     22 F          65.5841   90.6659   14.7474 F       1  UNL1       -0.2044
     23 C          66.8943   92.0525   12.9837 C.ar    1  UNL1        0.0295
     24 C          66.9644   92.7039   11.6343 C.ar    1  UNL1        0.0046
     25 C          65.7945   92.6202   10.6993 C.ar    1  UNL1        0.0295
     26 C          64.5543   91.8850   11.1137 C.ar    1  UNL1        0.1401
     27 F          63.8530   91.8945   10.4234 F       1  UNL1       -0.2044
     28 C          64.0887   85.4812   13.9328 C.3     1  UNL1        0.1337
     29 C          63.1892   84.5405   14.6784 C.3     1  UNL1        0.1000
     30 C          62.9837   83.1423   14.1754 C.ar    1  UNL1       -0.0061
     31 C          61.7672   82.3680   14.5880 C.ar    1  UNL1       -0.0029
     32 C          61.5618   80.9698   14.0850 C.ar    1  UNL1       -0.0003
     33 C          62.5729   80.3461   13.1694 C.ar    1  UNL1       -0.0000
     34 C          63.7895   81.1204   12.7567 C.ar    1  UNL1       -0.0003
     35 C          63.9950   82.5186   13.2597 C.ar    1  UNL1       -0.0029
     36 N          62.4949   84.9979   15.9269 N.3     1  UNL1       -0.2935
     37 H          62.2351   84.1579   16.4440 H       1  UNL1        0.1236
     38 C          63.2056   85.8986   16.8931 C.3     1  UNL1        0.0692
     39 C          62.5020   87.0968   17.4580 C.3     1  UNL1        0.0230
     40 C          63.1974   88.4253   17.4979 C.3     1  UNL1        0.0431
     41 C          62.6835   89.5660   16.6705 C.2     1  UNL1        0.0504
     42 O          61.4673   89.3817   15.8121 O.co2   1  UNL1       -0.5492
     43 O          63.3858   90.8912   16.7015 O.co2   1  UNL1       -0.5492
@<TRIPOS>UNITY_ATOM_ATTR
42 1
charge -1
@<TRIPOS>BOND
     1    17    18    1
     2    18    10    1
     3    10    11   ar
     4    11    12   ar
     5    12    13   ar
     6    13    14   ar
     7    14     1    1
     8     1     2   ar
     9     2     3    1
    10     2     4   ar
    11     4    19    1
    12    19    20    1
    13    20    21   ar
    14    21    22    1
    15    21    23   ar
    16    23    24   ar
    17    24    25   ar
    18    25    26   ar
    19    26    27    1
    20     4     5   ar
    21     5     6    2
    22     5     7   ar
    23     7    28    1
    24    29    28    1
    25    29    36    1
    26    36    38    1
    27    38    39    1
    28    39    40    1
    29    40    41    1
    30    41    42   ar
    31    41    43   ar
    32    29    30    1
    33    30    31   ar
    34    31    32   ar
    35    32    33   ar
    36    33    34   ar
    37    34    35   ar
    38     7     8   ar
    39     8     9    2
    40    14    15   ar
    41    15    16    1
    42    15    10   ar
    43     8     1   ar
    44    26    20   ar
    45    35    30   ar
    46    36    37    1
@<TRIPOS>MOLECULE
*****
 43 46 0 0 0
SMALL
GASTEIGER

@<TRIPOS>ATOM
      1 C          62.5557   86.8989   10.9706 C.ar    1  UNL1        0.0703
      2 C          62.6112   88.3572   11.3171 C.ar    1  UNL1        0.0465
      3 C          62.1052   89.3794   10.3429 C.3     1  UNL1        0.0503
      4 N          63.1727   88.7934   12.6379 N.ar    1  UNL1       -0.2805
      5 C          63.6787   87.7712   13.6121 C.ar    1  UNL1        0.3338
      6 O          64.0652   87.9406   14.5012 O.2     1  UNL1       -0.2462
      7 N          63.6232   86.3128   13.2655 N.ar    1  UNL1       -0.2470
      8 C          63.0617   85.8767   11.9448 C.ar    1  UNL1        0.2654
      9 O          63.0061   84.4183   11.5982 O.2     1  UNL1       -0.2668
     10 C          60.0422   86.4290    7.9354 C.ar    1  UNL1        0.1660
     11 C          60.8711   85.5903    7.0083 C.ar    1  UNL1        0.0392
     12 C          62.2614   85.1879    7.4018 C.ar    1  UNL1        0.0033
     13 C          62.8230   85.6240    8.7226 C.ar    1  UNL1        0.0026
     14 C          61.9941   86.4626    9.6497 C.ar    1  UNL1        0.0362
     15 C          60.6038   86.8651    9.2562 C.ar    1  UNL1        0.1739
     16 F          59.7749   87.7038   10.1834 F       1  UNL1       -0.2010
     17 C          58.3697   88.2445    7.1252 C.3     1  UNL1        0.2526
     18 O          58.6519   86.8314    7.5419 O.3     1  UNL1       -0.4692
     19 C          63.2282   90.2517   12.9845 C.3     1  UNL1        0.1413
     20 C          64.5035   91.0189   12.7976 C.ar    1  UNL1        0.0554
     21 C          64.7252   91.8113   11.5433 C.ar    1  UNL1        0.1401
     22 F          63.6716   91.8363   10.4759 F       1  UNL1       -0.2044
     23 C          66.0005   92.5785   11.3564 C.ar    1  UNL1        0.0295
     24 C          67.0541   92.5535   12.4237 C.ar    1  UNL1        0.0046
     25 C          66.8325   91.7612   13.6780 C.ar    1  UNL1        0.0295
     26 C          65.5571   90.9939   13.8649 C.ar    1  UNL1        0.1401
     27 F          65.5204   90.5123   14.7223 F       1  UNL1       -0.2044
     28 C          64.1292   85.2906   14.2397 C.3     1  UNL1        0.1337
     29 C          63.1638   84.3869   14.9478 C.3     1  UNL1        0.1000
     30 C          62.9207   82.9989   14.4338 C.ar    1  UNL1       -0.0061
     31 C          64.0456   82.2182   13.8213 C.ar    1  UNL1       -0.0029
     32 C          63.8025   80.8302   13.3073 C.ar    1  UNL1       -0.0003
     33 C          62.4346   80.2228   13.4057 C.ar    1  UNL1       -0.0000
     34 C          61.3096   81.0034   14.0182 C.ar    1  UNL1       -0.0003
     35 C          61.5527   82.3915   14.5322 C.ar    1  UNL1       -0.0029
     36 N          62.4413   84.8713   16.1699 N.3     1  UNL1       -0.2935
     37 H          62.1946   84.0442   16.7133 H       1  UNL1        0.1236
     38 C          63.1166   85.8230   17.1124 C.3     1  UNL1        0.0692
     39 C          62.4271   87.0915   17.5191 C.3     1  UNL1        0.0230
     40 C          63.1759   88.3912   17.5009 C.3     1  UNL1        0.0431
     41 C          62.6553   89.5455   16.6969 C.2     1  UNL1        0.0504
     42 O          63.3633   90.8673   16.7368 O.co2   1  UNL1       -0.5492
     43 O          61.4265   89.3781   15.8529 O.co2   1  UNL1       -0.5492
@<TRIPOS>UNITY_ATOM_ATTR
42 1
charge -1
@<TRIPOS>BOND
     1    17    18    1
     2    18    10    1
     3    10    11   ar
     4    11    12   ar
     5    12    13   ar
     6    13    14   ar
     7    14     1    1
     8     1     2   ar
     9     2     3    1
    10     2     4   ar
    11     4    19    1
    12    19    20    1
    13    20    21   ar
    14    21    22    1
    15    21    23   ar
    16    23    24   ar
    17    24    25   ar
    18    25    26   ar
    19    26    27    1
    20     4     5   ar
    21     5     6    2
    22     5     7   ar
    23     7    28    1
    24    29    28    1
    25    29    36    1
    26    36    38    1
    27    38    39    1
    28    39    40    1
    29    40    41    1
    30    41    42   ar
    31    41    43   ar
    32    29    30    1
    33    30    31   ar
    34    31    32   ar
    35    32    33   ar
    36    33    34   ar
    37    34    35   ar
    38     7     8   ar
    39     8     9    2
    40    14    15   ar
    41    15    16    1
    42    15    10   ar
    43     8     1   ar
    44    26    20   ar
    45    35    30   ar
    46    36    37    1
@<TRIPOS>MOLECULE
*****
 43 46 0 0 0
SMALL
GASTEIGER

@<TRIPOS>ATOM
      1 C          62.2801   86.9880   11.2401 C.ar    1  UNL1        0.0703
      2 C          62.8836   85.8216   11.9648 C.ar    1  UNL1        0.0465
      3 C          62.7051   84.4319   11.4292 C.3     1  UNL1        0.0503
      4 N          63.6656   86.0449   13.2253 N.ar    1  UNL1       -0.2805
      5 C          63.8441   87.4346   13.7609 C.ar    1  UNL1        0.3338
      6 O          64.3337   87.6980   14.5729 O.2     1  UNL1       -0.2462
      7 N          63.2405   88.6010   13.0361 N.ar    1  UNL1       -0.2470
      8 C          62.4585   88.3777   11.7758 C.ar    1  UNL1        0.2654
      9 O          61.8550   89.5441   11.0510 O.2     1  UNL1       -0.2668
     10 C          61.3513   85.8367    7.5574 C.ar    1  UNL1        0.1660
     11 C          59.9342   86.3182    7.4588 C.ar    1  UNL1        0.0392
     12 C          59.2989   87.0230    8.6206 C.ar    1  UNL1        0.0033
     13 C          60.0809   87.2462    9.8810 C.ar    1  UNL1        0.0026
     14 C          61.4980   86.7647    9.9796 C.ar    1  UNL1        0.0362
     15 C          62.1333   86.0600    8.8178 C.ar    1  UNL1        0.1739
     16 F          63.5505   85.5785    8.9165 F       1  UNL1       -0.2010
     17 C          61.3096   83.9448    5.7773 C.3     1  UNL1        0.2526
     18 O          61.9865   85.1319    6.3956 O.3     1  UNL1       -0.4692
     19 C          64.2691   84.8785   13.9500 C.3     1  UNL1        0.1413
     20 C          63.5978   83.5380   13.9038 C.ar    1  UNL1        0.0554
     21 C          62.3103   83.3180   14.6415 C.ar    1  UNL1        0.1401
     22 F          61.6943   84.4387   15.4255 F       1  UNL1       -0.2044
     23 C          61.6389   81.9775   14.5953 C.ar    1  UNL1        0.0295
     24 C          62.2549   80.8568   13.8113 C.ar    1  UNL1        0.0046
     25 C          63.5423   81.0767   13.0736 C.ar    1  UNL1        0.0295
     26 C          64.2138   82.4173   13.1198 C.ar    1  UNL1        0.1401
     27 F          65.0495   82.4468   12.6010 F       1  UNL1       -0.2044
     28 C          63.4190   89.9907   13.5718 C.3     1  UNL1        0.1337
     29 C          64.5400   90.8505   13.0678 C.3     1  UNL1        0.1000
     30 C          65.5282   91.4360   14.0326 C.ar    1  UNL1       -0.0061
     31 C          66.9675   91.5815   13.6361 C.ar    1  UNL1       -0.0029
     32 C          67.9556   92.1670   14.6008 C.ar    1  UNL1       -0.0003
     33 C          67.5045   92.6069   15.9620 C.ar    1  UNL1       -0.0000
     34 C          66.0652   92.4614   16.3586 C.ar    1  UNL1       -0.0003
     35 C          65.0770   91.8760   15.3938 C.ar    1  UNL1       -0.0029
     36 N          64.6728   91.1249   11.5991 N.3     1  UNL1       -0.2935
     37 H          63.9144   90.6240   11.1362 H       1  UNL1        0.1236
     38 C          64.6319   92.5363   11.0931 C.3     1  UNL1        0.0692
     39 C          65.8967   93.2125   10.6537 C.3     1  UNL1        0.0230
     40 C          67.0629   92.3921   10.1879 C.3     1  UNL1        0.0431
     41 C          68.1067   93.0068    9.3033 C.2     1  UNL1        0.0504
     42 O          68.7776   92.1788    8.2477 O.co2   1  UNL1       -0.5492
     43 O          68.4796   94.4497    9.4742 O.co2   1  UNL1       -0.5492
@<TRIPOS>UNITY_ATOM_ATTR
42 1
charge -1
@<TRIPOS>BOND
     1    17    18    1
     2    18    10    1
     3    10    11   ar
     4    11    12   ar
     5    12    13   ar
     6    13    14   ar
     7    14     1    1
     8     1     2   ar
     9     2     3    1
    10     2     4   ar
    11     4    19    1
    12    19    20    1
    13    20    21   ar
    14    21    22    1
    15    21    23   ar
    16    23    24   ar
    17    24    25   ar
    18    25    26   ar
    19    26    27    1
    20     4     5   ar
    21     5     6    2
    22     5     7   ar
    23     7    28    1
    24    29    28    1
    25    29    36    1
    26    36    38    1
    27    38    39    1
    28    39    40    1
    29    40    41    1
    30    41    42   ar
    31    41    43   ar
    32    29    30    1
    33    30    31   ar
    34    31    32   ar
    35    32    33   ar
    36    33    34   ar
    37    34    35   ar
    38     7     8   ar
    39     8     9    2
    40    14    15   ar
    41    15    16    1
    42    15    10   ar
    43     8     1   ar
    44    26    20   ar
    45    35    30   ar
    46    36    37    1
@<TRIPOS>MOLECULE
*****
 43 46 0 0 0
SMALL
GASTEIGER

@<TRIPOS>ATOM
      1 C          63.3037   88.1177   13.5782 C.ar    1  UNL1        0.0703
      2 C          63.9818   86.8094   13.8579 C.ar    1  UNL1        0.0465
      3 C          65.0718   86.7342   14.8856 C.3     1  UNL1        0.0503
      4 N          63.5699   85.5761   13.1098 N.ar    1  UNL1       -0.2805
      5 C          62.4799   85.6513   12.0821 C.ar    1  UNL1        0.3338
      6 O          62.1300   84.9122   11.5346 O.2     1  UNL1       -0.2462
      7 N          61.8018   86.9598   11.8024 N.ar    1  UNL1       -0.2470
      8 C          62.2137   88.1930   12.5505 C.ar    1  UNL1        0.2654
      9 O          61.5356   89.5014   12.2708 O.2     1  UNL1       -0.2668
     10 C          64.8418   91.6921   14.3583 C.ar    1  UNL1        0.1660
     11 C          64.5394   91.8174   15.8221 C.ar    1  UNL1        0.0392
     12 C          63.8251   90.7096   16.5380 C.ar    1  UNL1        0.0033
     13 C          63.4132   89.4764   15.7900 C.ar    1  UNL1        0.0026
     14 C          63.7156   89.3510   14.3262 C.ar    1  UNL1        0.0362
     15 C          64.4299   90.4589   13.6103 C.ar    1  UNL1        0.1739
     16 F          64.7322   90.3335   12.1464 F       1  UNL1       -0.2010
     17 C          66.6364   93.5706   14.3415 C.3     1  UNL1        0.2526
     18 O          65.5560   92.7999   13.6424 O.3     1  UNL1       -0.4692
     19 C          64.2480   84.2677   13.3895 C.3     1  UNL1        0.1413
     20 C          63.4561   82.9939   13.3725 C.ar    1  UNL1        0.0554
     21 C          63.6856   81.9825   12.2887 C.ar    1  UNL1        0.1401
     22 F          64.7069   82.2451   11.2220 F       1  UNL1       -0.2044
     23 C          62.8937   80.7087   12.2717 C.ar    1  UNL1        0.0295
     24 C          61.8724   80.4462   13.3385 C.ar    1  UNL1        0.0046
     25 C          61.6429   81.4575   14.4222 C.ar    1  UNL1        0.0295
     26 C          62.4348   82.7314   14.4393 C.ar    1  UNL1        0.1401
     27 F          62.2017   83.3190   15.1935 F       1  UNL1       -0.2044
     28 C          60.7117   87.0350   10.7747 C.3     1  UNL1        0.1337
     29 C          61.0375   87.4236    9.3630 C.3     1  UNL1        0.1000
     30 C          61.3887   86.3682    8.3567 C.ar    1  UNL1       -0.0061
     31 C          62.7855   85.8247    8.2962 C.ar    1  UNL1       -0.0029
     32 C          63.1367   84.7694    7.2898 C.ar    1  UNL1       -0.0003
     33 C          62.0912   84.2574    6.3439 C.ar    1  UNL1       -0.0000
     34 C          60.6944   84.8008    6.4044 C.ar    1  UNL1       -0.0003
     35 C          60.3431   85.8562    7.4107 C.ar    1  UNL1       -0.0029
     36 N          61.0119   88.8676    8.9577 N.3     1  UNL1       -0.2935
     37 H          61.7272   88.9846    8.2400 H       1  UNL1        0.1236
     38 C          59.7510   89.4720    8.4149 C.3     1  UNL1        0.0692
     39 C          59.3191   89.1709    7.0104 C.3     1  UNL1        0.0230
     40 C          59.6348   90.1352    5.9056 C.3     1  UNL1        0.0431
     41 C          58.5900   91.1020    5.4326 C.2     1  UNL1        0.0504
     42 O          57.1358   90.7574    5.5618 O.co2   1  UNL1       -0.5492
     43 O          58.9994   92.4135    4.8305 O.co2   1  UNL1       -0.5492
@<TRIPOS>UNITY_ATOM_ATTR
42 1
charge -1
@<TRIPOS>BOND
     1    17    18    1
     2    18    10    1
     3    10    11   ar
     4    11    12   ar
     5    12    13   ar
     6    13    14   ar
     7    14     1    1
     8     1     2   ar
     9     2     3    1
    10     2     4   ar
    11     4    19    1
    12    19    20    1
    13    20    21   ar
    14    21    22    1
    15    21    23   ar
    16    23    24   ar
    17    24    25   ar
    18    25    26   ar
    19    26    27    1
    20     4     5   ar
    21     5     6    2
    22     5     7   ar
    23     7    28    1
    24    29    28    1
    25    29    36    1
    26    36    38    1
    27    38    39    1
    28    39    40    1
    29    40    41    1
    30    41    42   ar
    31    41    43   ar
    32    29    30    1
    33    30    31   ar
    34    31    32   ar
    35    32    33   ar
    36    33    34   ar
    37    34    35   ar
    38     7     8   ar
    39     8     9    2
    40    14    15   ar
    41    15    16    1
    42    15    10   ar
    43     8     1   ar
    44    26    20   ar
    45    35    30   ar
    46    36    37    1
@<TRIPOS>MOLECULE
*****
 43 46 0 0 0
SMALL
GASTEIGER

@<TRIPOS>ATOM
      1 C          63.9466   89.8483   13.6498 C.ar    1  UNL1        0.0703
      2 C          64.8101   91.0710   13.7466 C.ar    1  UNL1        0.0465
      3 C          65.4503   91.4355   15.0532 C.3     1  UNL1        0.0503
      4 N          65.0336   91.9291   12.5367 N.ar    1  UNL1       -0.2805
      5 C          64.3935   91.5646   11.2301 C.ar    1  UNL1        0.3338
      6 O          64.4695   92.0500   10.3774 O.2     1  UNL1       -0.2462
      7 N          63.5299   90.3418   11.1333 N.ar    1  UNL1       -0.2470
      8 C          63.3065   89.4837   12.3431 C.ar    1  UNL1        0.2654
      9 O          62.4430   88.2610   12.2463 O.2     1  UNL1       -0.2668
     10 C          63.8181   86.6670   16.0189 C.ar    1  UNL1        0.1660
     11 C          63.2764   87.2738   17.2792 C.ar    1  UNL1        0.0392
     12 C          62.9581   88.7388   17.3297 C.ar    1  UNL1        0.0033
     13 C          63.1815   89.5970   16.1199 C.ar    1  UNL1        0.0026
     14 C          63.7232   88.9901   14.8596 C.ar    1  UNL1        0.0362
     15 C          64.0415   87.5252   14.8092 C.ar    1  UNL1        0.1739
     16 F          64.5833   86.9184   13.5488 F       1  UNL1       -0.2010
     17 C          63.2113   84.2575   15.2600 C.3     1  UNL1        0.2526
     18 O          64.1364   85.2021   15.9685 O.3     1  UNL1       -0.4692
     19 C          65.8971   93.1518   12.6335 C.3     1  UNL1        0.1413
     20 C          66.5289   93.7233   11.3990 C.ar    1  UNL1        0.0554
     21 C          67.5779   92.9431   10.6634 C.ar    1  UNL1        0.1401
     22 F          67.9949   91.5914   11.1623 F       1  UNL1       -0.2044
     23 C          68.2097   93.5147    9.4289 C.ar    1  UNL1        0.0295
     24 C          67.7927   94.8664    8.9300 C.ar    1  UNL1        0.0046
     25 C          66.7439   95.6466    9.6656 C.ar    1  UNL1        0.0295
     26 C          66.1119   95.0751   10.9001 C.ar    1  UNL1        0.1401
     27 F          65.4389   95.6719   11.2991 F       1  UNL1       -0.2044
     28 C          62.8898   89.9772    9.8266 C.3     1  UNL1        0.1337
     29 C          61.3950   89.9507    9.7054 C.3     1  UNL1        0.1000
     30 C          60.7164   88.7855    9.0482 C.ar    1  UNL1       -0.0061
     31 C          61.1236   87.3851    9.3989 C.ar    1  UNL1       -0.0029
     32 C          60.4450   86.2199    8.7418 C.ar    1  UNL1       -0.0003
     33 C          59.3592   86.4551    7.7340 C.ar    1  UNL1       -0.0000
     34 C          58.9519   87.8556    7.3833 C.ar    1  UNL1       -0.0003
     35 C          59.6305   89.0208    8.0404 C.ar    1  UNL1       -0.0029
     36 N          60.5787   91.0894   10.2412 N.3     1  UNL1       -0.2935
     37 H          60.0842   91.4964    9.4473 H       1  UNL1        0.1236
     38 C          59.5541   90.8408   11.3082 C.3     1  UNL1        0.0692
     39 C          59.6908   89.6559   12.2177 C.3     1  UNL1        0.0230
     40 C          58.6164   88.6097   12.2531 C.3     1  UNL1        0.0431
     41 C          57.7917   88.4232   13.4921 C.2     1  UNL1        0.0504
     42 O          56.3075   88.2355   13.3839 O.co2   1  UNL1       -0.5492
     43 O          58.4513   88.4245   14.8394 O.co2   1  UNL1       -0.5492
@<TRIPOS>UNITY_ATOM_ATTR
42 1
charge -1
@<TRIPOS>BOND
     1    17    18    1
     2    18    10    1
     3    10    11   ar
     4    11    12   ar
     5    12    13   ar
     6    13    14   ar
     7    14     1    1
     8     1     2   ar
     9     2     3    1
    10     2     4   ar
    11     4    19    1
    12    19    20    1
    13    20    21   ar
    14    21    22    1
    15    21    23   ar
    16    23    24   ar
    17    24    25   ar
    18    25    26   ar
    19    26    27    1
    20     4     5   ar
    21     5     6    2
    22     5     7   ar
    23     7    28    1
    24    29    28    1
    25    29    36    1
    26    36    38    1
    27    38    39    1
    28    39    40    1
    29    40    41    1
    30    41    42   ar
    31    41    43   ar
    32    29    30    1
    33    30    31   ar
    34    31    32   ar
    35    32    33   ar
    36    33    34   ar
    37    34    35   ar
    38     7     8   ar
    39     8     9    2
    40    14    15   ar
    41    15    16    1
    42    15    10   ar
    43     8     1   ar
    44    26    20   ar
    45    35    30   ar
    46    36    37    1
@<TRIPOS>MOLECULE
*****
 43 46 0 0 0
SMALL
GASTEIGER

@<TRIPOS>ATOM
      1 C          62.2043   87.0721   11.0618 C.ar    1  UNL1        0.0703
      2 C          62.7985   85.9774   11.8974 C.ar    1  UNL1        0.0465
      3 C          62.6661   84.5473   11.4646 C.3     1  UNL1        0.0503
      4 N          63.5254   86.3127   13.1661 N.ar    1  UNL1       -0.2805
      5 C          63.6578   87.7427   13.5990 C.ar    1  UNL1        0.3338
      6 O          64.1098   88.0777   14.4064 O.2     1  UNL1       -0.2462
      7 N          63.0635   88.8375   12.7632 N.ar    1  UNL1       -0.2470
      8 C          62.3368   88.5021   11.4946 C.ar    1  UNL1        0.2654
      9 O          61.7425   89.5968   10.6589 O.2     1  UNL1       -0.2668
     10 C          61.4561   85.6554    7.4308 C.ar    1  UNL1        0.1660
     11 C          60.0241   86.0661    7.2559 C.ar    1  UNL1        0.0392
     12 C          59.3188   86.8120    8.3496 C.ar    1  UNL1        0.0033
     13 C          60.0455   87.1474    9.6182 C.ar    1  UNL1        0.0026
     14 C          61.4775   86.7367    9.7931 C.ar    1  UNL1        0.0362
     15 C          62.1828   85.9908    8.6994 C.ar    1  UNL1        0.1739
     16 F          63.6149   85.5801    8.8744 F       1  UNL1       -0.2010
     17 C          61.3964   83.9617    5.4617 C.3     1  UNL1        0.2526
     18 O          62.1614   84.9095    6.3372 O.3     1  UNL1       -0.4692
     19 C          64.1196   85.2180   14.0018 C.3     1  UNL1        0.1413
     20 C          63.5486   83.8324   13.9389 C.ar    1  UNL1        0.0554
     21 C          64.2129   82.7850   13.0952 C.ar    1  UNL1        0.1401
     22 F          65.4482   83.1233   12.3144 F       1  UNL1       -0.2044
     23 C          63.6419   81.3994   13.0322 C.ar    1  UNL1        0.0295
     24 C          62.4065   81.0611   13.8130 C.ar    1  UNL1        0.0046
     25 C          61.7423   82.1084   14.6567 C.ar    1  UNL1        0.0295
     26 C          62.3133   83.4941   14.7196 C.ar    1  UNL1        0.1401
     27 F          61.7973   84.0965   15.3022 F       1  UNL1       -0.2044
     28 C          63.1960   90.2675   13.1961 C.3     1  UNL1        0.1337
     29 C          64.5559   90.8645   13.4066 C.3     1  UNL1        0.1000
     30 C          65.1953   91.6761   12.3192 C.ar    1  UNL1       -0.0061
     31 C          66.6370   92.0748   12.4299 C.ar    1  UNL1       -0.0029
     32 C          67.2764   92.8864   11.3425 C.ar    1  UNL1       -0.0003
     33 C          66.4740   93.2993   10.1443 C.ar    1  UNL1       -0.0000
     34 C          65.0322   92.9005   10.0335 C.ar    1  UNL1       -0.0003
     35 C          64.3928   92.0889   11.1209 C.ar    1  UNL1       -0.0029
     36 N          65.2765   90.6499   14.7046 N.3     1  UNL1       -0.2935
     37 H          66.2660   90.5488   14.4789 H       1  UNL1        0.1236
     38 C          65.1834   91.6779   15.7930 C.3     1  UNL1        0.0692
     39 C          66.2690   92.7004   15.9535 C.3     1  UNL1        0.0230
     40 C          67.6966   92.2626   16.0963 C.3     1  UNL1        0.0431
     41 C          68.7976   93.0883   15.4998 C.2     1  UNL1        0.0504
     42 O          69.5007   92.6183   14.2610 O.co2   1  UNL1       -0.5492
     43 O          69.1955   94.3842   16.1421 O.co2   1  UNL1       -0.5492
@<TRIPOS>UNITY_ATOM_ATTR
42 1
charge -1
@<TRIPOS>BOND
     1    17    18    1
     2    18    10    1
     3    10    11   ar
     4    11    12   ar
     5    12    13   ar
     6    13    14   ar
     7    14     1    1
     8     1     2   ar
     9     2     3    1
    10     2     4   ar
    11     4    19    1
    12    19    20    1
    13    20    21   ar
    14    21    22    1
    15    21    23   ar
    16    23    24   ar
    17    24    25   ar
    18    25    26   ar
    19    26    27    1
    20     4     5   ar
    21     5     6    2
    22     5     7   ar
    23     7    28    1
    24    29    28    1
    25    29    36    1
    26    36    38    1
    27    38    39    1
    28    39    40    1
    29    40    41    1
    30    41    42   ar
    31    41    43   ar
    32    29    30    1
    33    30    31   ar
    34    31    32   ar
    35    32    33   ar
    36    33    34   ar
    37    34    35   ar
    38     7     8   ar
    39     8     9    2
    40    14    15   ar
    41    15    16    1
    42    15    10   ar
    43     8     1   ar
    44    26    20   ar
    45    35    30   ar
    46    36    37    1
@<TRIPOS>MOLECULE
*****
 43 46 0 0 0
SMALL
GASTEIGER

@<TRIPOS>ATOM
      1 C          62.6167   87.6824   11.3886 C.ar    1  UNL1        0.0703
      2 C          63.0154   86.6621   12.4133 C.ar    1  UNL1        0.0465
      3 C          62.7614   85.2057   12.1598 C.3     1  UNL1        0.0503
      4 N          63.6681   87.0983   13.6915 N.ar    1  UNL1       -0.2805
      5 C          63.9221   88.5547   13.9450 C.ar    1  UNL1        0.3338
      6 O          64.3404   88.9532   14.7417 O.2     1  UNL1       -0.2462
      7 N          63.5234   89.5750   12.9202 N.ar    1  UNL1       -0.2470
      8 C          62.8707   89.1389   11.6420 C.ar    1  UNL1        0.2654
      9 O          62.4720   90.1591   10.6172 O.2     1  UNL1       -0.2668
     10 C          60.0168   87.4328    8.4006 C.ar    1  UNL1        0.1660
     11 C          60.6587   86.3740    7.5540 C.ar    1  UNL1        0.0392
     12 C          61.9533   85.7514    7.9855 C.ar    1  UNL1        0.0033
     13 C          62.6060   86.1875    9.2637 C.ar    1  UNL1        0.0026
     14 C          61.9641   87.2462   10.1103 C.ar    1  UNL1        0.0362
     15 C          60.6694   87.8689    9.6788 C.ar    1  UNL1        0.1739
     16 F          60.0275   88.9278   10.5255 F       1  UNL1       -0.2010
     17 C          58.7009   89.0250    6.8247 C.3     1  UNL1        0.2526
     18 O          58.7221   88.0555    7.9691 O.3     1  UNL1       -0.4692
     19 C          64.0667   86.0780   14.7162 C.3     1  UNL1        0.1413
     20 C          63.6983   84.6370   14.5226 C.ar    1  UNL1        0.0554
     21 C          64.6485   83.7066   13.8286 C.ar    1  UNL1        0.1401
     22 F          65.9672   84.2173   13.3284 F       1  UNL1       -0.2044
     23 C          64.2800   82.2655   13.6349 C.ar    1  UNL1        0.0295
     24 C          62.9614   81.7548   14.1352 C.ar    1  UNL1        0.0046
     25 C          62.0112   82.6851   14.8291 C.ar    1  UNL1        0.0295
     26 C          62.3796   84.1262   15.0228 C.ar    1  UNL1        0.1401
     27 F          61.6829   84.6419   15.4888 F       1  UNL1       -0.2044
     28 C          63.7774   91.0315   13.1737 C.3     1  UNL1        0.1337
     29 C          65.0487   91.6659   12.6929 C.3     1  UNL1        0.1000
     30 C          66.1537   91.9603   13.6636 C.ar    1  UNL1       -0.0061
     31 C          65.8286   92.4380   15.0478 C.ar    1  UNL1       -0.0029
     32 C          66.9336   92.7325   16.0185 C.ar    1  UNL1       -0.0003
     33 C          68.3638   92.5491   15.6050 C.ar    1  UNL1       -0.0000
     34 C          68.6890   92.0713   14.2208 C.ar    1  UNL1       -0.0003
     35 C          67.5839   91.7769   13.2501 C.ar    1  UNL1       -0.0029
     36 N          65.2151   92.0059   11.2414 N.3     1  UNL1       -0.2935
     37 H          64.3059   91.8670   10.8004 H       1  UNL1        0.1236
     38 C          65.6868   93.3721   10.8405 C.3     1  UNL1        0.0692
     39 C          67.0691   93.5561   10.2878 C.3     1  UNL1        0.0230
     40 C          67.2926   94.4607    9.1123 C.3     1  UNL1        0.0431
     41 C          67.1771   95.9471    9.2772 C.2     1  UNL1        0.0504
     42 O          67.4811   96.8557    8.1231 O.co2   1  UNL1       -0.5492
     43 O          66.7576   96.5251   10.5964 O.co2   1  UNL1       -0.5492
@<TRIPOS>UNITY_ATOM_ATTR
42 1
charge -1
@<TRIPOS>BOND
     1    17    18    1
     2    18    10    1
     3    10    11   ar
     4    11    12   ar
     5    12    13   ar
     6    13    14   ar
     7    14     1    1
     8     1     2   ar
     9     2     3    1
    10     2     4   ar
    11     4    19    1
    12    19    20    1
    13    20    21   ar
    14    21    22    1
    15    21    23   ar
    16    23    24   ar
    17    24    25   ar
    18    25    26   ar
    19    26    27    1
    20     4     5   ar
    21     5     6    2
    22     5     7   ar
    23     7    28    1
    24    29    28    1
    25    29    36    1
    26    36    38    1
    27    38    39    1
    28    39    40    1
    29    40    41    1
    30    41    42   ar
    31    41    43   ar
    32    29    30    1
    33    30    31   ar
    34    31    32   ar
    35    32    33   ar
    36    33    34   ar
    37    34    35   ar
    38     7     8   ar
    39     8     9    2
    40    14    15   ar
    41    15    16    1
    42    15    10   ar
    43     8     1   ar
    44    26    20   ar
    45    35    30   ar
    46    36    37    1
@<TRIPOS>MOLECULE
*****
 43 46 0 0 0
SMALL
GASTEIGER

@<TRIPOS>ATOM
      1 C          63.7473   89.8526   13.7340 C.ar    1  UNL1        0.0703
      2 C          64.7850   90.9344   13.6805 C.ar    1  UNL1        0.0465
      3 C          65.6688   91.1852   14.8662 C.3     1  UNL1        0.0503
      4 N          64.9389   91.7654   12.4412 N.ar    1  UNL1       -0.2805
      5 C          64.0551   91.5146   11.2555 C.ar    1  UNL1        0.3338
      6 O          64.0665   91.9942   10.3962 O.2     1  UNL1       -0.2462
      7 N          63.0173   90.4328   11.3090 N.ar    1  UNL1       -0.2470
      8 C          62.8634   89.6018   12.5483 C.ar    1  UNL1        0.2654
      9 O          61.8257   88.5200   12.6018 O.2     1  UNL1       -0.2668
     10 C          63.7348   86.7205   16.1712 C.ar    1  UNL1        0.1660
     11 C          63.2855   87.3595   17.4517 C.ar    1  UNL1        0.0392
     12 C          62.9902   88.8296   17.4930 C.ar    1  UNL1        0.0033
     13 C          63.1441   89.6606   16.2538 C.ar    1  UNL1        0.0026
     14 C          63.5933   89.0216   14.9733 C.ar    1  UNL1        0.0362
     15 C          63.8887   87.5515   14.9320 C.ar    1  UNL1        0.1739
     16 F          64.3380   86.9125   13.6514 F       1  UNL1       -0.2010
     17 C          63.1593   84.3329   15.3240 C.3     1  UNL1        0.2526
     18 O          64.0302   85.2505   16.1298 O.3     1  UNL1       -0.4692
     19 C          65.9766   92.8472   12.3877 C.3     1  UNL1        0.1413
     20 C          66.7222   93.1087   11.1127 C.ar    1  UNL1        0.0554
     21 C          66.3516   94.2816   10.2541 C.ar    1  UNL1        0.1401
     22 F          65.2353   95.1929   10.6706 F       1  UNL1       -0.2044
     23 C          67.0972   94.5432    8.9792 C.ar    1  UNL1        0.0295
     24 C          68.2135   93.6319    8.5627 C.ar    1  UNL1        0.0046
     25 C          68.5842   92.4591    9.4212 C.ar    1  UNL1        0.0295
     26 C          67.8385   92.1975   10.6963 C.ar    1  UNL1        0.1401
     27 F          68.1659   91.4038   11.1772 F       1  UNL1       -0.2044
     28 C          62.1335   90.1820   10.1233 C.3     1  UNL1        0.1337
     29 C          61.8672   88.7771    9.6701 C.3     1  UNL1        0.1000
     30 C          60.7139   88.4901    8.7550 C.ar    1  UNL1       -0.0061
     31 C          60.1390   89.5855    7.9066 C.ar    1  UNL1       -0.0029
     32 C          58.9857   89.2985    6.9915 C.ar    1  UNL1       -0.0003
     33 C          58.4072   87.9161    6.9247 C.ar    1  UNL1       -0.0000
     34 C          58.9821   86.8207    7.7731 C.ar    1  UNL1       -0.0003
     35 C          60.1354   87.1077    8.6883 C.ar    1  UNL1       -0.0029
     36 N          62.7543   87.6592   10.1321 N.3     1  UNL1       -0.2935
     37 H          63.3539   88.0420   10.8631 H       1  UNL1        0.1236
     38 C          62.1505   86.4010   10.6820 C.3     1  UNL1        0.0692
     39 C          62.8096   85.0783   10.4251 C.3     1  UNL1        0.0230
     40 C          62.9518   84.0825   11.5378 C.3     1  UNL1        0.0431
     41 C          64.0181   83.0297   11.4703 C.2     1  UNL1        0.0504
     42 O          64.3702   82.2392   12.6955 O.co2   1  UNL1       -0.5492
     43 O          64.7323   82.7673   10.1776 O.co2   1  UNL1       -0.5492
@<TRIPOS>UNITY_ATOM_ATTR
42 1
charge -1
@<TRIPOS>BOND
     1    17    18    1
     2    18    10    1
     3    10    11   ar
     4    11    12   ar
     5    12    13   ar
     6    13    14   ar
     7    14     1    1
     8     1     2   ar
     9     2     3    1
    10     2     4   ar
    11     4    19    1
    12    19    20    1
    13    20    21   ar
    14    21    22    1
    15    21    23   ar
    16    23    24   ar
    17    24    25   ar
    18    25    26   ar
    19    26    27    1
    20     4     5   ar
    21     5     6    2
    22     5     7   ar
    23     7    28    1
    24    29    28    1
    25    29    36    1
    26    36    38    1
    27    38    39    1
    28    39    40    1
    29    40    41    1
    30    41    42   ar
    31    41    43   ar
    32    29    30    1
    33    30    31   ar
    34    31    32   ar
    35    32    33   ar
    36    33    34   ar
    37    34    35   ar
    38     7     8   ar
    39     8     9    2
    40    14    15   ar
    41    15    16    1
    42    15    10   ar
    43     8     1   ar
    44    26    20   ar
    45    35    30   ar
    46    36    37    1
@<TRIPOS>MOLECULE
*****
 43 46 0 0 0
SMALL
GASTEIGER

@<TRIPOS>ATOM
      1 C          63.7559   89.6581   13.5236 C.ar    1  UNL1        0.0703
      2 C          64.6146   90.8878   13.5039 C.ar    1  UNL1        0.0465
      3 C          65.3131   91.3350   14.7537 C.3     1  UNL1        0.0503
      4 N          64.7749   91.6704   12.2342 N.ar    1  UNL1       -0.2805
      5 C          64.0764   91.2232   10.9843 C.ar    1  UNL1        0.3338
      6 O          64.1089   91.6552   10.1008 O.2     1  UNL1       -0.2462
      7 N          63.2177   89.9934   11.0042 N.ar    1  UNL1       -0.2470
      8 C          63.0575   89.2109   12.2738 C.ar    1  UNL1        0.2654
      9 O          62.1987   87.9811   12.2936 O.2     1  UNL1       -0.2668
     10 C          63.7722   86.6315   16.0907 C.ar    1  UNL1        0.1660
     11 C          63.2752   87.3104   17.3325 C.ar    1  UNL1        0.0392
     12 C          62.9384   88.7719   17.3047 C.ar    1  UNL1        0.0033
     13 C          63.0987   89.5544   16.0351 C.ar    1  UNL1        0.0026
     14 C          63.5957   88.8755   14.7933 C.ar    1  UNL1        0.0362
     15 C          63.9324   87.4141   14.8211 C.ar    1  UNL1        0.1739
     16 F          64.4294   86.7352   13.5793 F       1  UNL1       -0.2010
     17 C          63.3186   84.2024   15.2885 C.3     1  UNL1        0.2526
     18 O          64.1089   85.1701   16.1185 O.3     1  UNL1       -0.4692
     19 C          65.6336   92.9000   12.2144 C.3     1  UNL1        0.1413
     20 C          66.5150   93.1804   11.0335 C.ar    1  UNL1        0.0554
     21 C          66.2338   94.3605   10.1512 C.ar    1  UNL1        0.1401
     22 F          65.0713   95.2602   10.4499 F       1  UNL1       -0.2044
     23 C          67.1151   94.6409    8.9703 C.ar    1  UNL1        0.0295
     24 C          68.2776   93.7412    8.6716 C.ar    1  UNL1        0.0046
     25 C          68.5588   92.5611    9.5539 C.ar    1  UNL1        0.0295
     26 C          67.6774   92.2807   10.7349 C.ar    1  UNL1        0.1401
     27 F          67.9549   91.4837   11.2410 F       1  UNL1       -0.2044
     28 C          62.5192   89.5462    9.7543 C.3     1  UNL1        0.1337
     29 C          61.5981   88.3629    9.7923 C.3     1  UNL1        0.1000
     30 C          62.1616   86.9729    9.7727 C.ar    1  UNL1       -0.0061
     31 C          62.7618   86.4247    8.5121 C.ar    1  UNL1       -0.0029
     32 C          63.3252   85.0347    8.4925 C.ar    1  UNL1       -0.0003
     33 C          63.2885   84.1929    9.7334 C.ar    1  UNL1       -0.0000
     34 C          62.6883   84.7411   10.9941 C.ar    1  UNL1       -0.0003
     35 C          62.1248   86.1311   11.0137 C.ar    1  UNL1       -0.0029
     36 N          60.1135   88.5697    9.8500 N.3     1  UNL1       -0.2935
     37 H          59.9578   89.4525   10.3366 H       1  UNL1        0.1236
     38 C          59.3145   88.6275    8.5818 C.3     1  UNL1        0.0692
     39 C          59.6960   89.5921    7.4984 C.3     1  UNL1        0.0230
     40 C          59.0040   89.5385    6.1686 C.3     1  UNL1        0.0431
     41 C          58.6233   90.8097    5.4694 C.2     1  UNL1        0.0504
     42 O          59.6840   91.6748    4.8557 O.co2   1  UNL1       -0.5492
     43 O          57.1819   91.2160    5.3838 O.co2   1  UNL1       -0.5492
@<TRIPOS>UNITY_ATOM_ATTR
42 1
charge -1
@<TRIPOS>BOND
     1    17    18    1
     2    18    10    1
     3    10    11   ar
     4    11    12   ar
     5    12    13   ar
     6    13    14   ar
     7    14     1    1
     8     1     2   ar
     9     2     3    1
    10     2     4   ar
    11     4    19    1
    12    19    20    1
    13    20    21   ar
    14    21    22    1
    15    21    23   ar
    16    23    24   ar
    17    24    25   ar
    18    25    26   ar
    19    26    27    1
    20     4     5   ar
    21     5     6    2
    22     5     7   ar
    23     7    28    1
    24    29    28    1
    25    29    36    1
    26    36    38    1
    27    38    39    1
    28    39    40    1
    29    40    41    1
    30    41    42   ar
    31    41    43   ar
    32    29    30    1
    33    30    31   ar
    34    31    32   ar
    35    32    33   ar
    36    33    34   ar
    37    34    35   ar
    38     7     8   ar
    39     8     9    2
    40    14    15   ar
    41    15    16    1
    42    15    10   ar
    43     8     1   ar
    44    26    20   ar
    45    35    30   ar
    46    36    37    1
