@<TRIPOS>MOLECULE
*****
 29 31 0 0 0
SMALL
GASTEIGER

@<TRIPOS>ATOM
      1 C          62.6509   85.3811   11.5235 C.ar    1  UNL1        0.1344
      2 C          62.8081   85.0598   10.0668 C.ar    1  UNL1        0.0310
      3 C          61.9382   85.7388    9.0509 C.ar    1  UNL1       -0.0067
      4 C          62.0953   85.4174    7.5941 C.3     1  UNL1        0.0319
      5 C          60.9110   86.7391    9.4917 C.ar    1  UNL1        0.0959
      6 C          60.7538   87.0605   10.9484 C.ar    1  UNL1        0.1393
      7 N          61.6238   86.3815   11.9643 N.ar    1  UNL1       -0.2154
      8 N          63.5209   84.7021   12.5395 N.pl3   1  UNL1       -0.2819
      9 H          64.3993   85.0829   12.7686 H       1  UNL1        0.1551
     10 C          62.0803   79.6881   13.3547 C.3     1  UNL1        0.0515
     11 C          62.3902   81.1382   13.5811 C.ar    1  UNL1        0.0548
     12 C          62.8721   82.1091   12.5442 C.ar    1  UNL1        0.0502
     13 C          63.0524   83.4429   13.2064 C.ar    1  UNL1        0.1539
     14 N          62.6818   83.2963   14.6525 N.ar    1  UNL1       -0.1577
     15 N          62.2726   81.8719   14.8841 N.ar    1  UNL1       -0.2786
     16 H          61.9785   81.4863   15.7409 H       1  UNL1        0.1886
     17 C          60.0411   87.4182    8.4757 C.1     1  UNL1        0.1029
     18 N          59.1712   88.0971    7.4597 N.1     1  UNL1       -0.1907
     19 N          59.7267   88.0608   11.3891 N.pl3   1  UNL1       -0.3145
     20 H          58.7895   87.7841   11.5084 H       1  UNL1        0.1483
     21 C          60.1276   89.4828   11.6482 C.3     1  UNL1        0.1362
     22 C          61.5782   89.8644   11.6517 C.3     1  UNL1        0.2265
     23 O          62.4057   89.6555   12.8853 O.3     1  UNL1       -0.4736
     24 C          63.6610   90.4507   13.0899 C.ar    1  UNL1        0.1386
     25 C          64.0829   91.4628   12.0663 C.ar    1  UNL1        0.0369
     26 C          65.3382   92.2580   12.2709 C.ar    1  UNL1        0.0031
     27 C          66.1716   92.0411   13.4992 C.ar    1  UNL1        0.0002
     28 C          65.7496   91.0291   14.5227 C.ar    1  UNL1        0.0031
     29 C          64.4944   90.2339   14.3181 C.ar    1  UNL1        0.0369
@<TRIPOS>BOND
     1    10    11    1
     2    11    12   ar
     3    12    13   ar
     4    13     8    1
     5     8     1    1
     6     1     2   ar
     7     2     3   ar
     8     3     4    1
     9     3     5   ar
    10     5    17    1
    11    17    18    3
    12     5     6   ar
    13     6    19    1
    14    19    21    1
    15    21    22    1
    16    22    23    1
    17    23    24    1
    18    24    25   ar
    19    25    26   ar
    20    26    27   ar
    21    27    28   ar
    22    28    29   ar
    23     6     7   ar
    24    13    14   ar
    25    14    15   ar
    26    15    11   ar
    27     7     1   ar
    28    29    24   ar
    29     8     9    1
    30    19    20    1
    31    15    16    1
@<TRIPOS>MOLECULE
*****
 29 31 0 0 0
SMALL
GASTEIGER

@<TRIPOS>ATOM
      1 C          61.8486   89.7645   10.9551 C.ar    1  UNL1        0.1344
      2 C          62.7442   90.8378   10.4111 C.ar    1  UNL1        0.0310
      3 C          63.8602   91.3814   11.2530 C.ar    1  UNL1       -0.0067
      4 C          64.7558   92.4547   10.7090 C.3     1  UNL1        0.0319
      5 C          64.0807   90.8518   12.6390 C.ar    1  UNL1        0.0959
      6 C          63.1851   89.7785   13.1830 C.ar    1  UNL1        0.1393
      7 N          62.0691   89.2349   12.3411 N.ar    1  UNL1       -0.2154
      8 N          60.7325   89.2208   10.1132 N.pl3   1  UNL1       -0.2819
      9 H          59.8714   89.6962   10.0707 H       1  UNL1        0.1551
     10 C          62.9093   84.8562    8.0902 C.3     1  UNL1        0.0515
     11 C          61.9290   85.9468    8.4061 C.ar    1  UNL1        0.0548
     12 C          62.1746   87.1186    9.3097 C.ar    1  UNL1        0.0502
     13 C          60.9284   87.9529    9.3360 C.ar    1  UNL1        0.1539
     14 N          59.9125   87.2968    8.4486 N.ar    1  UNL1       -0.1577
     15 N          60.5308   86.0569    7.8739 N.ar    1  UNL1       -0.2786
     16 H          60.0955   85.4262    7.2559 H       1  UNL1        0.1886
     17 C          65.1968   91.3955   13.4809 C.1     1  UNL1        0.1029
     18 N          66.3128   91.9392   14.3229 N.1     1  UNL1       -0.1907
     19 N          63.4055   89.2489   14.5690 N.pl3   1  UNL1       -0.3145
     20 H          62.8624   89.5869   15.3173 H       1  UNL1        0.1483
     21 C          64.4535   88.2043   14.8148 C.3     1  UNL1        0.1362
     22 C          64.1120   86.7508   14.6708 C.3     1  UNL1        0.2265
     23 O          63.5359   86.2397   13.3836 O.3     1  UNL1       -0.4736
     24 C          63.1368   84.7990   13.2603 C.ar    1  UNL1        0.1386
     25 C          62.7194   84.0295   14.4784 C.ar    1  UNL1        0.0369
     26 C          62.3202   82.5889   14.3551 C.ar    1  UNL1        0.0031
     27 C          62.3385   81.9177   13.0137 C.ar    1  UNL1        0.0002
     28 C          62.7559   82.6872   11.7957 C.ar    1  UNL1        0.0031
     29 C          63.1550   84.1279   11.9190 C.ar    1  UNL1        0.0369
@<TRIPOS>BOND
     1    10    11    1
     2    11    12   ar
     3    12    13   ar
     4    13     8    1
     5     8     1    1
     6     1     2   ar
     7     2     3   ar
     8     3     4    1
     9     3     5   ar
    10     5    17    1
    11    17    18    3
    12     5     6   ar
    13     6    19    1
    14    19    21    1
    15    21    22    1
    16    22    23    1
    17    23    24    1
    18    24    25   ar
    19    25    26   ar
    20    26    27   ar
    21    27    28   ar
    22    28    29   ar
    23     6     7   ar
    24    13    14   ar
    25    14    15   ar
    26    15    11   ar
    27     7     1   ar
    28    29    24   ar
    29     8     9    1
    30    19    20    1
    31    15    16    1
@<TRIPOS>MOLECULE
*****
 29 31 0 0 0
SMALL
GASTEIGER

@<TRIPOS>ATOM
      1 C          64.8015   91.8213   12.5726 C.ar    1  UNL1        0.1344
      2 C          64.0907   91.7053   11.2569 C.ar    1  UNL1        0.0310
      3 C          63.1983   90.5301   10.9877 C.ar    1  UNL1       -0.0067
      4 C          62.4874   90.4140    9.6719 C.3     1  UNL1        0.0319
      5 C          63.0167   89.4710   12.0343 C.ar    1  UNL1        0.0959
      6 C          63.7275   89.5871   13.3500 C.ar    1  UNL1        0.1393
      7 N          64.6199   90.7622   13.6192 N.ar    1  UNL1       -0.2154
      8 N          65.6940   92.9966   12.8419 N.pl3   1  UNL1       -0.2819
      9 H          65.8124   93.3239   13.7628 H       1  UNL1        0.1551
     10 C          67.1811   96.6033    9.2838 C.3     1  UNL1        0.0515
     11 C          67.0895   95.3307   10.0726 C.ar    1  UNL1        0.0548
     12 C          66.1577   95.0688   11.2184 C.ar    1  UNL1        0.0502
     13 C          66.4060   93.6729   11.7081 C.ar    1  UNL1        0.1539
     14 N          67.4914   93.0721   10.8648 N.ar    1  UNL1       -0.1577
     15 N          67.9138   94.0967    9.8540 N.ar    1  UNL1       -0.2786
     16 H          68.6099   93.9798    9.1676 H       1  UNL1        0.1886
     17 C          62.1242   88.2958   11.7650 C.1     1  UNL1        0.1029
     18 N          61.2317   87.1207   11.4958 N.1     1  UNL1       -0.1907
     19 N          63.5458   88.5280   14.3966 N.pl3   1  UNL1       -0.3145
     20 H          62.6884   88.4496   14.8740 H       1  UNL1        0.1483
     21 C          64.6705   87.5882   14.7157 C.3     1  UNL1        0.1362
     22 C          64.4225   86.1095   14.7606 C.3     1  UNL1        0.2265
     23 O          63.0266   85.5786   14.6208 O.3     1  UNL1       -0.4736
     24 C          62.7925   84.2455   13.9742 C.ar    1  UNL1        0.1386
     25 C          62.3059   83.0886   14.7958 C.ar    1  UNL1        0.0369
     26 C          62.0718   81.7555   14.1493 C.ar    1  UNL1        0.0031
     27 C          62.3242   81.5792   12.6812 C.ar    1  UNL1        0.0002
     28 C          62.8108   82.7361   11.8597 C.ar    1  UNL1        0.0031
     29 C          63.0449   84.0692   12.5062 C.ar    1  UNL1        0.0369
@<TRIPOS>BOND
     1    10    11    1
     2    11    12   ar
     3    12    13   ar
     4    13     8    1
     5     8     1    1
     6     1     2   ar
     7     2     3   ar
     8     3     4    1
     9     3     5   ar
    10     5    17    1
    11    17    18    3
    12     5     6   ar
    13     6    19    1
    14    19    21    1
    15    21    22    1
    16    22    23    1
    17    23    24    1
    18    24    25   ar
    19    25    26   ar
    20    26    27   ar
    21    27    28   ar
    22    28    29   ar
    23     6     7   ar
    24    13    14   ar
    25    14    15   ar
    26    15    11   ar
    27     7     1   ar
    28    29    24   ar
    29     8     9    1
    30    19    20    1
    31    15    16    1
@<TRIPOS>MOLECULE
*****
 29 31 0 0 0
SMALL
GASTEIGER

@<TRIPOS>ATOM
      1 C          64.0138   90.3987   14.7346 C.ar    1  UNL1        0.1344
      2 C          65.2288   91.2587   14.9194 C.ar    1  UNL1        0.0310
      3 C          65.7536   92.0717   13.7734 C.ar    1  UNL1       -0.0067
      4 C          66.9686   92.9318   13.9582 C.3     1  UNL1        0.0319
      5 C          65.0634   92.0248   12.4424 C.ar    1  UNL1        0.0959
      6 C          63.8484   91.1649   12.2575 C.ar    1  UNL1        0.1393
      7 N          63.3236   90.3518   13.4036 N.ar    1  UNL1       -0.2154
      8 N          63.4890   89.5856   15.8807 N.pl3   1  UNL1       -0.2819
      9 H          63.0930   90.0347   16.6622 H       1  UNL1        0.1551
     10 C          64.7867   84.6648   14.4730 C.3     1  UNL1        0.0515
     11 C          64.1639   85.8265   15.1890 C.ar    1  UNL1        0.0548
     12 C          64.3833   87.2766   14.8741 C.ar    1  UNL1        0.0502
     13 C          63.5674   88.0884   15.8360 C.ar    1  UNL1        0.1539
     14 N          62.8438   87.1400   16.7454 N.ar    1  UNL1       -0.1577
     15 N          63.2124   85.7421   16.3455 N.ar    1  UNL1       -0.2786
     16 H          62.8870   84.9145   16.7680 H       1  UNL1        0.1886
     17 C          65.5882   92.8379   11.2963 C.1     1  UNL1        0.1029
     18 N          66.1130   93.6510   10.1503 N.1     1  UNL1       -0.1907
     19 N          63.1582   91.1180   10.9266 N.pl3   1  UNL1       -0.3145
     20 H          63.5982   91.4943   10.1304 H       1  UNL1        0.1483
     21 C          61.7976   90.4976   10.8088 C.3     1  UNL1        0.1362
     22 C          61.6109   89.2468   10.0023 C.3     1  UNL1        0.2265
     23 O          61.1876   87.9756   10.6769 O.3     1  UNL1       -0.4736
     24 C          61.9141   86.6954   10.3882 C.ar    1  UNL1        0.1386
     25 C          62.1779   85.7169   11.4941 C.ar    1  UNL1        0.0369
     26 C          62.9044   84.4367   11.2054 C.ar    1  UNL1        0.0031
     27 C          63.3670   84.1351    9.8107 C.ar    1  UNL1        0.0002
     28 C          63.1032   85.1136    8.7049 C.ar    1  UNL1        0.0031
     29 C          62.3767   86.3937    8.9936 C.ar    1  UNL1        0.0369
@<TRIPOS>BOND
     1    10    11    1
     2    11    12   ar
     3    12    13   ar
     4    13     8    1
     5     8     1    1
     6     1     2   ar
     7     2     3   ar
     8     3     4    1
     9     3     5   ar
    10     5    17    1
    11    17    18    3
    12     5     6   ar
    13     6    19    1
    14    19    21    1
    15    21    22    1
    16    22    23    1
    17    23    24    1
    18    24    25   ar
    19    25    26   ar
    20    26    27   ar
    21    27    28   ar
    22    28    29   ar
    23     6     7   ar
    24    13    14   ar
    25    14    15   ar
    26    15    11   ar
    27     7     1   ar
    28    29    24   ar
    29     8     9    1
    30    19    20    1
    31    15    16    1
@<TRIPOS>MOLECULE
*****
 29 31 0 0 0
SMALL
GASTEIGER

@<TRIPOS>ATOM
      1 C          62.4109   85.5809   10.9840 C.ar    1  UNL1        0.1344
      2 C          63.0077   84.3862   10.3011 C.ar    1  UNL1        0.0310
      3 C          63.3313   83.1539   11.0926 C.ar    1  UNL1       -0.0067
      4 C          63.9283   81.9591   10.4096 C.3     1  UNL1        0.0319
      5 C          63.0581   83.1161   12.5670 C.ar    1  UNL1        0.0959
      6 C          62.4612   84.3108   13.2499 C.ar    1  UNL1        0.1393
      7 N          62.1376   85.5432   12.4585 N.ar    1  UNL1       -0.2154
      8 N          62.0872   86.8134   10.1926 N.pl3   1  UNL1       -0.2819
      9 H          62.2107   86.8177    9.2159 H       1  UNL1        0.1551
     10 C          58.9958   90.8364   11.6550 C.3     1  UNL1        0.0515
     11 C          60.1545   89.8884   11.5615 C.ar    1  UNL1        0.0548
     12 C          60.2498   88.6995   10.6518 C.ar    1  UNL1        0.0502
     13 C          61.5755   88.0392   10.8893 C.ar    1  UNL1        0.1539
     14 N          62.2996   88.8200   11.9457 N.ar    1  UNL1       -0.1577
     15 N          61.4214   89.9628   12.3612 N.ar    1  UNL1       -0.2786
     16 H          61.6384   90.6424   13.0397 H       1  UNL1        0.1886
     17 C          63.3817   81.8836   13.3584 C.1     1  UNL1        0.1029
     18 N          63.7053   80.6512   14.1499 N.1     1  UNL1       -0.1907
     19 N          62.1879   84.2731   14.7243 N.pl3   1  UNL1       -0.3145
     20 H          61.2929   84.0276   15.0529 H       1  UNL1        0.1483
     21 C          63.2782   84.6092   15.6980 C.3     1  UNL1        0.1362
     22 C          63.9114   85.9688   15.6749 C.3     1  UNL1        0.2265
     23 O          63.1463   87.1610   16.1683 O.3     1  UNL1       -0.4736
     24 C          63.6133   88.5452   15.8279 C.ar    1  UNL1        0.1386
     25 C          64.4325   88.7779   14.5930 C.ar    1  UNL1        0.0369
     26 C          64.8995   90.1621   14.2526 C.ar    1  UNL1        0.0031
     27 C          64.5473   91.3137   15.1471 C.ar    1  UNL1        0.0002
     28 C          63.7281   91.0810   16.3818 C.ar    1  UNL1        0.0031
     29 C          63.2611   89.6967   16.7222 C.ar    1  UNL1        0.0369
@<TRIPOS>BOND
     1    10    11    1
     2    11    12   ar
     3    12    13   ar
     4    13     8    1
     5     8     1    1
     6     1     2   ar
     7     2     3   ar
     8     3     4    1
     9     3     5   ar
    10     5    17    1
    11    17    18    3
    12     5     6   ar
    13     6    19    1
    14    19    21    1
    15    21    22    1
    16    22    23    1
    17    23    24    1
    18    24    25   ar
    19    25    26   ar
    20    26    27   ar
    21    27    28   ar
    22    28    29   ar
    23     6     7   ar
    24    13    14   ar
    25    14    15   ar
    26    15    11   ar
    27     7     1   ar
    28    29    24   ar
    29     8     9    1
    30    19    20    1
    31    15    16    1
@<TRIPOS>MOLECULE
*****
 29 31 0 0 0
SMALL
GASTEIGER

@<TRIPOS>ATOM
      1 C          61.6726   89.0150   11.4065 C.ar    1  UNL1        0.1344
      2 C          60.9043   89.5019   10.2137 C.ar    1  UNL1        0.0310
      3 C          60.5526   88.5505    9.1088 C.ar    1  UNL1       -0.0067
      4 C          59.7844   89.0374    7.9159 C.3     1  UNL1        0.0319
      5 C          60.9692   87.1122    9.1965 C.ar    1  UNL1        0.0959
      6 C          61.7374   86.6253   10.3893 C.ar    1  UNL1        0.1393
      7 N          62.0891   87.5767   11.4942 N.ar    1  UNL1       -0.2154
      8 N          62.0243   89.9665   12.5116 N.pl3   1  UNL1       -0.2819
      9 H          61.4597   90.0163   13.3165 H       1  UNL1        0.1551
     10 C          65.9293   92.8831   10.4806 C.3     1  UNL1        0.0515
     11 C          65.0312   92.1825   11.4566 C.ar    1  UNL1        0.0548
     12 C          63.8352   91.3459   11.1106 C.ar    1  UNL1        0.0502
     13 C          63.2363   90.8419   12.3902 C.ar    1  UNL1        0.1539
     14 N          64.0621   91.3670   13.5270 N.ar    1  UNL1       -0.1577
     15 N          65.1714   92.1955   12.9500 N.ar    1  UNL1       -0.2786
     16 H          65.8690   92.6654   13.4617 H       1  UNL1        0.1886
     17 C          60.6174   86.1607    8.0914 C.1     1  UNL1        0.1029
     18 N          60.2657   85.2094    6.9864 N.1     1  UNL1       -0.1907
     19 N          62.1540   85.1869   10.4770 N.pl3   1  UNL1       -0.3145
     20 H          61.6464   84.5611   11.0427 H       1  UNL1        0.1483
     21 C          63.3437   84.7021    9.7029 C.3     1  UNL1        0.1362
     22 C          63.8897   83.3270    9.9499 C.3     1  UNL1        0.2265
     23 O          64.7049   83.0533   11.1790 O.3     1  UNL1       -0.4736
     24 C          64.0667   83.1284   12.5344 C.ar    1  UNL1        0.1386
     25 C          64.5969   84.0849   13.5611 C.ar    1  UNL1        0.0369
     26 C          63.9587   84.1600   14.9165 C.ar    1  UNL1        0.0031
     27 C          62.7902   83.2786   15.2451 C.ar    1  UNL1        0.0002
     28 C          62.2601   82.3221   14.2184 C.ar    1  UNL1        0.0031
     29 C          62.8983   82.2471   12.8631 C.ar    1  UNL1        0.0369
@<TRIPOS>BOND
     1    10    11    1
     2    11    12   ar
     3    12    13   ar
     4    13     8    1
     5     8     1    1
     6     1     2   ar
     7     2     3   ar
     8     3     4    1
     9     3     5   ar
    10     5    17    1
    11    17    18    3
    12     5     6   ar
    13     6    19    1
    14    19    21    1
    15    21    22    1
    16    22    23    1
    17    23    24    1
    18    24    25   ar
    19    25    26   ar
    20    26    27   ar
    21    27    28   ar
    22    28    29   ar
    23     6     7   ar
    24    13    14   ar
    25    14    15   ar
    26    15    11   ar
    27     7     1   ar
    28    29    24   ar
    29     8     9    1
    30    19    20    1
    31    15    16    1
@<TRIPOS>MOLECULE
*****
 29 31 0 0 0
SMALL
GASTEIGER

@<TRIPOS>ATOM
      1 C          62.4138   86.2060   11.2357 C.ar    1  UNL1        0.1344
      2 C          62.3358   84.7089   11.1860 C.ar    1  UNL1        0.0310
      3 C          62.8292   83.8934   12.3442 C.ar    1  UNL1       -0.0067
      4 C          62.7512   82.3962   12.2946 C.3     1  UNL1        0.0319
      5 C          63.4006   84.5750   13.5521 C.ar    1  UNL1        0.0959
      6 C          63.4786   86.0721   13.6017 C.ar    1  UNL1        0.1393
      7 N          62.9852   86.8876   12.4435 N.ar    1  UNL1       -0.2154
      8 N          61.9204   87.0216   10.0774 N.pl3   1  UNL1       -0.2819
      9 H          61.9345   88.0048   10.1262 H       1  UNL1        0.1551
     10 C          61.7068   84.2252    5.6036 C.3     1  UNL1        0.0515
     11 C          61.3074   85.0538    6.7885 C.ar    1  UNL1        0.0548
     12 C          62.2259   85.5575    7.8621 C.ar    1  UNL1        0.0502
     13 C          61.4056   86.3392    8.8449 C.ar    1  UNL1        0.1539
     14 N          59.9800   86.3186    8.3787 N.ar    1  UNL1       -0.1577
     15 N          59.9193   85.5242    7.1078 N.ar    1  UNL1       -0.2786
     16 H          59.1104   85.3433    6.5765 H       1  UNL1        0.1886
     17 C          63.8940   83.7594   14.7103 C.1     1  UNL1        0.1029
     18 N          64.3874   82.9439   15.8685 N.1     1  UNL1       -0.1907
     19 N          64.0500   86.7537   14.8096 N.pl3   1  UNL1       -0.3145
     20 H          64.1221   86.2662   15.6618 H       1  UNL1        0.1483
     21 C          64.5114   88.1781   14.7189 C.3     1  UNL1        0.1362
     22 C          63.6148   89.2878   15.1822 C.3     1  UNL1        0.2265
     23 O          62.7029   89.9719   14.2072 O.3     1  UNL1       -0.4736
     24 C          63.2712   90.6394   12.9901 C.ar    1  UNL1        0.1386
     25 C          64.5047   91.4853   13.1057 C.ar    1  UNL1        0.0369
     26 C          65.0730   92.1528   11.8886 C.ar    1  UNL1        0.0031
     27 C          64.4080   91.9745   10.5559 C.ar    1  UNL1        0.0002
     28 C          63.1746   91.1287   10.4404 C.ar    1  UNL1        0.0031
     29 C          62.6063   90.4611   11.6575 C.ar    1  UNL1        0.0369
@<TRIPOS>BOND
     1    10    11    1
     2    11    12   ar
     3    12    13   ar
     4    13     8    1
     5     8     1    1
     6     1     2   ar
     7     2     3   ar
     8     3     4    1
     9     3     5   ar
    10     5    17    1
    11    17    18    3
    12     5     6   ar
    13     6    19    1
    14    19    21    1
    15    21    22    1
    16    22    23    1
    17    23    24    1
    18    24    25   ar
    19    25    26   ar
    20    26    27   ar
    21    27    28   ar
    22    28    29   ar
    23     6     7   ar
    24    13    14   ar
    25    14    15   ar
    26    15    11   ar
    27     7     1   ar
    28    29    24   ar
    29     8     9    1
    30    19    20    1
    31    15    16    1
@<TRIPOS>MOLECULE
*****
 29 31 0 0 0
SMALL
GASTEIGER

@<TRIPOS>ATOM
      1 C          63.8377   85.2012   15.4449 C.ar    1  UNL1        0.1344
      2 C          63.3171   85.5903   16.7967 C.ar    1  UNL1        0.0310
      3 C          63.1505   87.0391   17.1477 C.ar    1  UNL1       -0.0067
      4 C          62.6298   87.4282   18.4996 C.3     1  UNL1        0.0319
      5 C          63.5045   88.0988   16.1469 C.ar    1  UNL1        0.0959
      6 C          64.0251   87.7097   14.7950 C.ar    1  UNL1        0.1393
      7 N          64.1917   86.2609   14.4440 N.ar    1  UNL1       -0.2154
      8 N          64.0043   83.7524   15.0938 N.pl3   1  UNL1       -0.2819
      9 H          64.3539   83.1207   15.7632 H       1  UNL1        0.1551
     10 C          64.0934   82.8698    9.8887 C.3     1  UNL1        0.0515
     11 C          63.6793   82.8603   11.3304 C.ar    1  UNL1        0.0548
     12 C          64.4007   83.5348   12.4594 C.ar    1  UNL1        0.0502
     13 C          63.6384   83.2659   13.7230 C.ar    1  UNL1        0.1539
     14 N          62.4458   82.4253   13.3749 N.ar    1  UNL1       -0.1577
     15 N          62.4711   82.1745   11.8962 N.ar    1  UNL1       -0.2786
     16 H          61.8107   81.6517   11.3866 H       1  UNL1        0.1886
     17 C          63.3379   89.5476   16.4979 C.1     1  UNL1        0.1029
     18 N          63.1712   90.9964   16.8490 N.1     1  UNL1       -0.1907
     19 N          64.3792   88.7694   13.7942 N.pl3   1  UNL1       -0.3145
     20 H          65.3221   89.0088   13.6435 H       1  UNL1        0.1483
     21 C          63.2965   89.4642   13.0229 C.3     1  UNL1        0.1362
     22 C          62.8407   88.9107   11.7054 C.3     1  UNL1        0.2265
     23 O          62.1091   87.6022   11.6544 O.3     1  UNL1       -0.4736
     24 C          61.5327   87.1152   10.3579 C.ar    1  UNL1        0.1386
     25 C          60.1703   87.5698    9.9251 C.ar    1  UNL1        0.0369
     26 C          59.5940   87.0828    8.6287 C.ar    1  UNL1        0.0031
     27 C          60.3801   86.1413    7.7651 C.ar    1  UNL1        0.0002
     28 C          61.7424   85.6868    8.1980 C.ar    1  UNL1        0.0031
     29 C          62.3187   86.1737    9.4944 C.ar    1  UNL1        0.0369
@<TRIPOS>BOND
     1    10    11    1
     2    11    12   ar
     3    12    13   ar
     4    13     8    1
     5     8     1    1
     6     1     2   ar
     7     2     3   ar
     8     3     4    1
     9     3     5   ar
    10     5    17    1
    11    17    18    3
    12     5     6   ar
    13     6    19    1
    14    19    21    1
    15    21    22    1
    16    22    23    1
    17    23    24    1
    18    24    25   ar
    19    25    26   ar
    20    26    27   ar
    21    27    28   ar
    22    28    29   ar
    23     6     7   ar
    24    13    14   ar
    25    14    15   ar
    26    15    11   ar
    27     7     1   ar
    28    29    24   ar
    29     8     9    1
    30    19    20    1
    31    15    16    1
@<TRIPOS>MOLECULE
*****
 29 31 0 0 0
SMALL
GASTEIGER

@<TRIPOS>ATOM
      1 C          62.8070   85.7683   11.9872 C.ar    1  UNL1        0.1344
      2 C          63.0395   84.6263   11.0429 C.ar    1  UNL1        0.0310
      3 C          63.1857   83.2313   11.5747 C.ar    1  UNL1       -0.0067
      4 C          63.4182   82.0892   10.6304 C.3     1  UNL1        0.0319
      5 C          63.0994   82.9785   13.0507 C.ar    1  UNL1        0.0959
      6 C          62.8669   84.1205   13.9949 C.ar    1  UNL1        0.1393
      7 N          62.7207   85.5154   13.4632 N.ar    1  UNL1       -0.2154
      8 N          62.6608   87.1633   11.4555 N.pl3   1  UNL1       -0.2819
      9 H          63.2117   87.8910   11.8245 H       1  UNL1        0.1551
     10 C          59.0151   86.5303    7.6887 C.3     1  UNL1        0.0515
     11 C          59.9994   87.1585    8.6302 C.ar    1  UNL1        0.0548
     12 C          60.8385   86.4344    9.6409 C.ar    1  UNL1        0.0502
     13 C          61.6752   87.4495   10.3616 C.ar    1  UNL1        0.1539
     14 N          61.3532   88.8011    9.7963 N.ar    1  UNL1       -0.1577
     15 N          60.3176   88.6213    8.7262 N.ar    1  UNL1       -0.2786
     16 H          59.9169   89.3376    8.1824 H       1  UNL1        0.1886
     17 C          63.2456   81.5834   13.5824 C.1     1  UNL1        0.1029
     18 N          63.3919   80.1885   14.1141 N.1     1  UNL1       -0.1907
     19 N          62.7807   83.8676   15.4709 N.pl3   1  UNL1       -0.3145
     20 H          63.0327   82.9884   15.8353 H       1  UNL1        0.1483
     21 C          62.3105   84.9542   16.3918 C.3     1  UNL1        0.1362
     22 C          63.2538   86.0427   16.8108 C.3     1  UNL1        0.2265
     23 O          62.7434   87.4373   17.0221 O.3     1  UNL1       -0.4736
     24 C          63.3548   88.5818   16.2696 C.ar    1  UNL1        0.1386
     25 C          63.2721   89.9733   16.8237 C.ar    1  UNL1        0.0369
     26 C          63.8836   91.1178   16.0712 C.ar    1  UNL1        0.0031
     27 C          64.5777   90.8707   14.7646 C.ar    1  UNL1        0.0002
     28 C          64.6604   89.4793   14.2105 C.ar    1  UNL1        0.0031
     29 C          64.0489   88.3348   14.9630 C.ar    1  UNL1        0.0369
@<TRIPOS>BOND
     1    10    11    1
     2    11    12   ar
     3    12    13   ar
     4    13     8    1
     5     8     1    1
     6     1     2   ar
     7     2     3   ar
     8     3     4    1
     9     3     5   ar
    10     5    17    1
    11    17    18    3
    12     5     6   ar
    13     6    19    1
    14    19    21    1
    15    21    22    1
    16    22    23    1
    17    23    24    1
    18    24    25   ar
    19    25    26   ar
    20    26    27   ar
    21    27    28   ar
    22    28    29   ar
    23     6     7   ar
    24    13    14   ar
    25    14    15   ar
    26    15    11   ar
    27     7     1   ar
    28    29    24   ar
    29     8     9    1
    30    19    20    1
    31    15    16    1
