@<TRIPOS>MOLECULE
*****
 32 35 0 0 0
SMALL
GASTEIGER

@<TRIPOS>ATOM
      1 C          65.4649   92.8616   13.0979 C.ar    1  UNL1        0.1424
      2 C          64.5573   92.6177   11.9287 C.ar    1  UNL1        0.0339
      3 C          63.9363   91.2668   11.7304 C.ar    1  UNL1       -0.0037
      4 C          64.2228   90.1598   12.7011 C.ar    1  UNL1        0.0515
      5 C          65.1304   90.4036   13.8702 C.ar    1  UNL1        0.0215
      6 C          65.7515   91.7545   14.0686 C.ar    1  UNL1        0.1065
      7 N          63.4720   88.9420   12.2502 N.am    1  UNL1       -0.2430
      8 C          63.4717   87.6046   12.9295 C.2     1  UNL1        0.3114
      9 O          64.2752   87.3980   14.1792 O.2     1  UNL1       -0.2519
     10 N          62.6681   86.4738   12.3591 N.am    1  UNL1       -0.2678
     11 C          62.7214   89.2964   11.0008 C.3     1  UNL1        0.1045
     12 C          63.0084   90.7332   10.6795 C.3     1  UNL1        0.0496
     13 H          62.1407   86.6094   11.5389 H       1  UNL1        0.1564
     14 C          62.6678   85.1364   13.0383 C.ar    1  UNL1        0.0538
     15 C          62.6247   85.0556   14.5355 C.ar    1  UNL1        0.0443
     16 C          62.6244   83.7181   15.2146 C.ar    1  UNL1        0.1414
     17 F          62.5813   83.6372   16.7118 F       1  UNL1       -0.2041
     18 C          62.6673   82.4616   14.3966 C.ar    1  UNL1        0.0298
     19 C          62.7104   82.5424   12.8994 C.ar    1  UNL1        0.0050
     20 C          62.7106   83.8798   12.2203 C.ar    1  UNL1        0.0149
     21 C          62.7532   81.2858   12.0814 C.ar    1  UNL1        0.0193
     22 C          63.0950   81.3520   10.6223 C.ar    1  UNL1        0.0031
     23 C          63.1378   80.0955    9.8043 C.ar    1  UNL1        0.0207
     24 C          62.8389   78.7727   10.4453 C.ar    1  UNL1        0.0989
     25 N          62.4971   78.7065   11.9043 N.ar    1  UNL1       -0.2423
     26 C          62.4543   79.9630   12.7224 C.ar    1  UNL1        0.0988
     27 C          66.6590   91.9984   15.2377 C.3     1  UNL1        0.4214
     28 F          67.5666   92.2422   16.4068 F       1  UNL1       -0.1657
     29 F          67.8391   91.5895   14.4069 F       1  UNL1       -0.1657
     30 F          65.4790   92.4072   16.0685 F       1  UNL1       -0.1657
     31 C          66.4156   95.0680   12.1090 C.3     1  UNL1        0.2525
     32 O          66.0860   94.2125   13.2962 O.3     1  UNL1       -0.4715
@<TRIPOS>BOND
     1    31    32    1
     2    32     1    1
     3     1     2   ar
     4     2     3   ar
     5     3     4   ar
     6     4     5   ar
     7     5     6   ar
     8     6    27    1
     9    27    28    1
    10    27    29    1
    11    27    30    1
    12     4     7    1
    13     7     8   am
    14     8     9    2
    15     8    10   am
    16    10    14    1
    17    14    15   ar
    18    15    16   ar
    19    16    17    1
    20    16    18   ar
    21    18    19   ar
    22    19    21    1
    23    21    22   ar
    24    22    23   ar
    25    23    24   ar
    26    24    25   ar
    27    25    26   ar
    28    19    20   ar
    29     7    11    1
    30    11    12    1
    31     6     1   ar
    32    20    14   ar
    33    12     3    1
    34    26    21   ar
    35    10    13    1
@<TRIPOS>MOLECULE
*****
 32 35 0 0 0
SMALL
GASTEIGER

@<TRIPOS>ATOM
      1 C          62.8568   82.3099   12.1622 C.ar    1  UNL1        0.1424
      2 C          62.6061   82.2675   13.6405 C.ar    1  UNL1        0.0339
      3 C          62.7829   83.5066   14.4671 C.ar    1  UNL1       -0.0037
      4 C          63.2105   84.7882   13.8153 C.ar    1  UNL1        0.0515
      5 C          63.4612   84.8306   12.3371 C.ar    1  UNL1        0.0215
      6 C          63.2844   83.5914   11.5105 C.ar    1  UNL1        0.1065
      7 N          63.3020   85.8413   14.8795 N.am    1  UNL1       -0.2430
      8 C          63.6955   87.2737   14.6709 C.2     1  UNL1        0.3114
      9 O          64.0418   87.7637   13.2962 O.2     1  UNL1       -0.2519
     10 N          63.7427   88.2160   15.8370 N.am    1  UNL1       -0.2678
     11 C          62.9310   85.2107   16.1890 C.3     1  UNL1        0.1045
     12 C          62.6102   83.7677   15.9340 C.3     1  UNL1        0.0496
     13 H          63.5154   87.8943   16.7393 H       1  UNL1        0.1564
     14 C          64.1361   89.6484   15.6284 C.ar    1  UNL1        0.0538
     15 C          63.8426   90.6687   16.6881 C.ar    1  UNL1        0.0443
     16 C          64.2361   92.1011   16.4794 C.ar    1  UNL1        0.1414
     17 F          63.9426   93.1214   17.5390 F       1  UNL1       -0.2041
     18 C          64.9231   92.5131   15.2112 C.ar    1  UNL1        0.0298
     19 C          65.2166   91.4928   14.1516 C.ar    1  UNL1        0.0050
     20 C          64.8231   90.0604   14.3603 C.ar    1  UNL1        0.0149
     21 C          65.9035   91.9048   12.8834 C.ar    1  UNL1        0.0193
     22 C          65.0937   92.3566   11.7044 C.ar    1  UNL1        0.0031
     23 C          65.7806   92.7686   10.4363 C.ar    1  UNL1        0.0207
     24 C          67.2774   92.7287   10.3470 C.ar    1  UNL1        0.0989
     25 N          68.0873   92.2769   11.5260 N.ar    1  UNL1       -0.2423
     26 C          67.4003   91.8649   12.7942 C.ar    1  UNL1        0.0988
     27 C          63.5351   83.6339   10.0322 C.3     1  UNL1        0.4214
     28 F          63.7858   83.6763    8.5539 F       1  UNL1       -0.1657
     29 F          62.4323   84.6382    9.8740 F       1  UNL1       -0.1657
     30 F          64.6379   82.6295   10.1904 F       1  UNL1       -0.1657
     31 C          62.6450   79.7256   11.9986 C.3     1  UNL1        0.2525
     32 O          62.6800   81.0707   11.3356 O.3     1  UNL1       -0.4715
@<TRIPOS>BOND
     1    31    32    1
     2    32     1    1
     3     1     2   ar
     4     2     3   ar
     5     3     4   ar
     6     4     5   ar
     7     5     6   ar
     8     6    27    1
     9    27    28    1
    10    27    29    1
    11    27    30    1
    12     4     7    1
    13     7     8   am
    14     8     9    2
    15     8    10   am
    16    10    14    1
    17    14    15   ar
    18    15    16   ar
    19    16    17    1
    20    16    18   ar
    21    18    19   ar
    22    19    21    1
    23    21    22   ar
    24    22    23   ar
    25    23    24   ar
    26    24    25   ar
    27    25    26   ar
    28    19    20   ar
    29     7    11    1
    30    11    12    1
    31     6     1   ar
    32    20    14   ar
    33    12     3    1
    34    26    21   ar
    35    10    13    1
@<TRIPOS>MOLECULE
*****
 32 35 0 0 0
SMALL
GASTEIGER

@<TRIPOS>ATOM
      1 C          66.0768   93.8069   11.9855 C.ar    1  UNL1        0.1424
      2 C          65.1127   93.2992   10.9546 C.ar    1  UNL1        0.0339
      3 C          64.4564   91.9626   11.1354 C.ar    1  UNL1       -0.0037
      4 C          64.7641   91.1337   12.3470 C.ar    1  UNL1        0.0515
      5 C          65.7282   91.6414   13.3779 C.ar    1  UNL1        0.0215
      6 C          66.3846   92.9780   13.1972 C.ar    1  UNL1        0.1065
      7 N          63.9694   89.8649   12.2546 N.am    1  UNL1       -0.2430
      8 C          63.9730   88.7475   13.2553 C.2     1  UNL1        0.3114
      9 O          64.8278   88.8440   14.4842 O.2     1  UNL1       -0.2519
     10 N          63.1219   87.5336   13.0272 N.am    1  UNL1       -0.2678
     11 C          63.1705   89.9096   10.9859 C.3     1  UNL1        0.1045
     12 C          63.4715   91.2061   10.2941 C.3     1  UNL1        0.0496
     13 H          62.5609   87.4703   12.2206 H       1  UNL1        0.1564
     14 C          63.1255   86.4161   14.0279 C.ar    1  UNL1        0.0538
     15 C          63.3868   86.7070   15.4760 C.ar    1  UNL1        0.0443
     16 C          63.3903   85.5895   16.4766 C.ar    1  UNL1        0.1414
     17 F          63.6516   85.8802   17.9247 F       1  UNL1       -0.2041
     18 C          63.1325   84.1812   16.0290 C.ar    1  UNL1        0.0298
     19 C          62.8712   83.8903   14.5809 C.ar    1  UNL1        0.0050
     20 C          62.8677   85.0078   13.5803 C.ar    1  UNL1        0.0149
     21 C          62.6134   82.4821   14.1334 C.ar    1  UNL1        0.0193
     22 C          63.6982   81.7009   13.4528 C.ar    1  UNL1        0.0031
     23 C          63.4404   80.2927   13.0052 C.ar    1  UNL1        0.0207
     24 C          62.0979   79.6655   13.2382 C.ar    1  UNL1        0.0989
     25 N          61.0131   80.4467   13.9188 N.ar    1  UNL1       -0.2423
     26 C          61.2709   81.8549   14.3664 C.ar    1  UNL1        0.0988
     27 C          67.3486   93.4857   14.2281 C.3     1  UNL1        0.4214
     28 F          68.3127   93.9933   15.2590 F       1  UNL1       -0.1657
     29 F          66.4283   94.6325   14.5241 F       1  UNL1       -0.1657
     30 F          68.2690   92.3389   13.9321 F       1  UNL1       -0.1657
     31 C          66.0652   96.2012   10.9770 C.3     1  UNL1        0.2525
     32 O          66.7331   95.1435   11.8047 O.3     1  UNL1       -0.4715
@<TRIPOS>BOND
     1    31    32    1
     2    32     1    1
     3     1     2   ar
     4     2     3   ar
     5     3     4   ar
     6     4     5   ar
     7     5     6   ar
     8     6    27    1
     9    27    28    1
    10    27    29    1
    11    27    30    1
    12     4     7    1
    13     7     8   am
    14     8     9    2
    15     8    10   am
    16    10    14    1
    17    14    15   ar
    18    15    16   ar
    19    16    17    1
    20    16    18   ar
    21    18    19   ar
    22    19    21    1
    23    21    22   ar
    24    22    23   ar
    25    23    24   ar
    26    24    25   ar
    27    25    26   ar
    28    19    20   ar
    29     7    11    1
    30    11    12    1
    31     6     1   ar
    32    20    14   ar
    33    12     3    1
    34    26    21   ar
    35    10    13    1
@<TRIPOS>MOLECULE
*****
 32 35 0 0 0
SMALL
GASTEIGER

@<TRIPOS>ATOM
      1 C          63.6356   81.8350   14.0841 C.ar    1  UNL1        0.1424
      2 C          63.8995   82.6778   15.2966 C.ar    1  UNL1        0.0339
      3 C          63.9126   84.1733   15.1821 C.ar    1  UNL1       -0.0037
      4 C          63.6617   84.8261   13.8552 C.ar    1  UNL1        0.0515
      5 C          63.3977   83.9835   12.6427 C.ar    1  UNL1        0.0215
      6 C          63.3847   82.4878   12.7571 C.ar    1  UNL1        0.1065
      7 N          63.7362   86.3118   14.0481 N.am    1  UNL1       -0.2430
      8 C          63.5470   87.3499   12.9819 C.2     1  UNL1        0.3114
      9 O          63.2535   86.9317   11.5716 O.2     1  UNL1       -0.2519
     10 N          63.6512   88.8061   13.3261 N.am    1  UNL1       -0.2678
     11 C          64.0332   86.5772   15.4942 C.3     1  UNL1        0.1045
     12 C          64.1422   85.2555   16.1951 C.3     1  UNL1        0.0496
     13 H          63.8439   89.0806   14.2518 H       1  UNL1        0.1564
     14 C          63.4620   89.8443   12.2600 C.ar    1  UNL1        0.0538
     15 C          62.1817   89.8937   11.4801 C.ar    1  UNL1        0.0443
     16 C          61.9926   90.9318   10.4140 C.ar    1  UNL1        0.1414
     17 F          60.7123   90.9813    9.6340 F       1  UNL1       -0.2041
     18 C          63.0838   91.9205   10.1280 C.ar    1  UNL1        0.0298
     19 C          64.3641   91.8711   10.9079 C.ar    1  UNL1        0.0050
     20 C          64.5532   90.8330   11.9739 C.ar    1  UNL1        0.0149
     21 C          65.4552   92.8598   10.6218 C.ar    1  UNL1        0.0193
     22 C          65.1539   94.3292   10.6182 C.ar    1  UNL1        0.0031
     23 C          66.2451   95.3179   10.3322 C.ar    1  UNL1        0.0207
     24 C          67.6376   94.8372   10.0497 C.ar    1  UNL1        0.0989
     25 N          67.9389   93.3678   10.0533 N.ar    1  UNL1       -0.2423
     26 C          66.8477   92.3791   10.3393 C.ar    1  UNL1        0.0988
     27 C          63.1207   81.6451   11.5446 C.3     1  UNL1        0.4214
     28 F          62.8568   80.8025   10.3322 F       1  UNL1       -0.1657
     29 F          61.6983   81.4597   11.9832 F       1  UNL1       -0.1657
     30 F          64.5431   81.8306   11.1061 F       1  UNL1       -0.1657
     31 C          62.3225   79.5938   14.1363 C.3     1  UNL1        0.2525
     32 O          63.6226   80.3394   14.1986 O.3     1  UNL1       -0.4715
@<TRIPOS>BOND
     1    31    32    1
     2    32     1    1
     3     1     2   ar
     4     2     3   ar
     5     3     4   ar
     6     4     5   ar
     7     5     6   ar
     8     6    27    1
     9    27    28    1
    10    27    29    1
    11    27    30    1
    12     4     7    1
    13     7     8   am
    14     8     9    2
    15     8    10   am
    16    10    14    1
    17    14    15   ar
    18    15    16   ar
    19    16    17    1
    20    16    18   ar
    21    18    19   ar
    22    19    21    1
    23    21    22   ar
    24    22    23   ar
    25    23    24   ar
    26    24    25   ar
    27    25    26   ar
    28    19    20   ar
    29     7    11    1
    30    11    12    1
    31     6     1   ar
    32    20    14   ar
    33    12     3    1
    34    26    21   ar
    35    10    13    1
@<TRIPOS>MOLECULE
*****
 32 35 0 0 0
SMALL
GASTEIGER

@<TRIPOS>ATOM
      1 C          62.8376   81.4211   13.3919 C.ar    1  UNL1        0.1424
      2 C          62.5267   81.8883   14.7830 C.ar    1  UNL1        0.0339
      3 C          62.6985   83.3339   15.1446 C.ar    1  UNL1       -0.0037
      4 C          63.1811   84.3123   14.1151 C.ar    1  UNL1        0.0515
      5 C          63.4920   83.8451   12.7240 C.ar    1  UNL1        0.0215
      6 C          63.3202   82.3994   12.3624 C.ar    1  UNL1        0.1065
      7 N          63.2539   85.6649   14.7593 N.am    1  UNL1       -0.2430
      8 C          63.6881   86.9367   14.0929 C.2     1  UNL1        0.3114
      9 O          64.1005   86.9248   12.6507 O.2     1  UNL1       -0.2519
     10 N          63.7099   88.2203   14.8686 N.am    1  UNL1       -0.2678
     11 C          62.8162   85.5226   16.1870 C.3     1  UNL1        0.1045
     12 C          62.4730   84.0819   16.4251 C.3     1  UNL1        0.0496
     13 H          63.4392   88.2281   15.8151 H       1  UNL1        0.1564
     14 C          64.1441   89.4922   14.2022 C.ar    1  UNL1        0.0538
     15 C          63.4563   89.9569   12.9528 C.ar    1  UNL1        0.0443
     16 C          63.8906   91.2287   12.2865 C.ar    1  UNL1        0.1414
     17 F          63.2028   91.6936   11.0372 F       1  UNL1       -0.2041
     18 C          65.0125   92.0357   12.8696 C.ar    1  UNL1        0.0298
     19 C          65.7003   91.5709   14.1189 C.ar    1  UNL1        0.0050
     20 C          65.2661   90.2991   14.7852 C.ar    1  UNL1        0.0149
     21 C          66.8223   92.3779   14.7020 C.ar    1  UNL1        0.0193
     22 C          67.8593   91.7122   15.5572 C.ar    1  UNL1        0.0031
     23 C          68.9813   92.5191   16.1403 C.ar    1  UNL1        0.0207
     24 C          69.0663   93.9917   15.8681 C.ar    1  UNL1        0.0989
     25 N          68.0292   94.6574   15.0129 N.ar    1  UNL1       -0.2423
     26 C          66.9073   93.8505   14.4298 C.ar    1  UNL1        0.0988
     27 C          63.6311   81.9322   10.9714 C.3     1  UNL1        0.4214
     28 F          63.9419   81.4650    9.5804 F       1  UNL1       -0.1657
     29 F          62.3204   81.2044   10.9230 F       1  UNL1       -0.1657
     30 F          64.9417   82.6600   11.0198 F       1  UNL1       -0.1657
     31 C          61.5865   79.1626   13.6817 C.3     1  UNL1        0.2525
     32 O          62.6658   79.9755   13.0304 O.3     1  UNL1       -0.4715
@<TRIPOS>BOND
     1    31    32    1
     2    32     1    1
     3     1     2   ar
     4     2     3   ar
     5     3     4   ar
     6     4     5   ar
     7     5     6   ar
     8     6    27    1
     9    27    28    1
    10    27    29    1
    11    27    30    1
    12     4     7    1
    13     7     8   am
    14     8     9    2
    15     8    10   am
    16    10    14    1
    17    14    15   ar
    18    15    16   ar
    19    16    17    1
    20    16    18   ar
    21    18    19   ar
    22    19    21    1
    23    21    22   ar
    24    22    23   ar
    25    23    24   ar
    26    24    25   ar
    27    25    26   ar
    28    19    20   ar
    29     7    11    1
    30    11    12    1
    31     6     1   ar
    32    20    14   ar
    33    12     3    1
    34    26    21   ar
    35    10    13    1
