@<TRIPOS>MOLECULE
*****
 17 19 0 0 0
SMALL
GASTEIGER

@<TRIPOS>ATOM
      1 N          62.8388   84.9936    7.7963 N.pl3   1  UNL1       -0.3572
      2 C          62.4798   85.3520    9.2079 C.ar    1  UNL1        0.0400
      3 C          61.5699   86.5134    9.4786 C.ar    1  UNL1        0.0043
      4 C          61.2109   86.8718   10.8902 C.ar    1  UNL1        0.0561
      5 N          61.7618   86.0689   12.0311 N.ar    1  UNL1       -0.2499
      6 C          62.6718   84.9075   11.7605 C.ar    1  UNL1        0.0820
      7 C          63.2227   84.1046   12.9015 C.ar    1  UNL1        0.0191
      8 C          64.1327   82.9433   12.6308 C.ar    1  UNL1        0.0015
      9 C          64.4916   82.5849   11.2192 C.ar    1  UNL1        0.0001
     10 C          63.9407   83.3877   10.0782 C.ar    1  UNL1        0.0027
     11 C          63.0308   84.5491   10.3489 C.ar    1  UNL1        0.0303
     12 C          60.3009   88.0332   11.1608 C.3     1  UNL1        0.0455
     13 C          59.7500   88.8361   10.0199 C.3     1  UNL1        0.0066
     14 C          60.1090   88.4776    8.6083 C.3     1  UNL1        0.0052
     15 C          61.0189   87.3163    8.3376 C.3     1  UNL1        0.0288
     16 H          62.4772   85.5205    7.0475 H       1  UNL1        0.1423
     17 H          63.4360   84.2313    7.6187 H       1  UNL1        0.1423
@<TRIPOS>BOND
     1     1     2    1
     2     2     3   ar
     3     3     4   ar
     4     4     5   ar
     5     5     6   ar
     6     6     7   ar
     7     7     8   ar
     8     8     9   ar
     9     9    10   ar
    10    10    11   ar
    11     4    12    1
    12    12    13    1
    13    13    14    1
    14    14    15    1
    15    11     2   ar
    16    15     3    1
    17    11     6   ar
    18     1    16    1
    19     1    17    1
@<TRIPOS>MOLECULE
*****
 17 19 0 0 0
SMALL
GASTEIGER

@<TRIPOS>ATOM
      1 N          62.8380   84.9930    7.7970 N.pl3   1  UNL1       -0.3572
      2 C          62.4792   85.3521    9.2085 C.ar    1  UNL1        0.0400
      3 C          63.0301   84.5495   10.3497 C.ar    1  UNL1        0.0043
      4 C          62.6713   84.9086   11.7612 C.ar    1  UNL1        0.0561
      5 N          61.7615   86.0702   12.0315 N.ar    1  UNL1       -0.2499
      6 C          61.2106   86.8727   10.8902 C.ar    1  UNL1        0.0820
      7 C          60.3009   88.0343   11.1605 C.ar    1  UNL1        0.0191
      8 C          59.7500   88.8368   10.0193 C.ar    1  UNL1        0.0015
      9 C          60.1088   88.4778    8.6078 C.ar    1  UNL1        0.0001
     10 C          61.0185   87.3162    8.3375 C.ar    1  UNL1        0.0027
     11 C          61.5694   86.5137    9.4787 C.ar    1  UNL1        0.0303
     12 C          63.2222   84.1060   12.9024 C.3     1  UNL1        0.0455
     13 C          64.1320   82.9444   12.6321 C.3     1  UNL1        0.0066
     14 C          64.4908   82.5854   11.2207 C.3     1  UNL1        0.0052
     15 C          63.9399   83.3879   10.0794 C.3     1  UNL1        0.0288
     16 H          63.4351   84.2306    7.6196 H       1  UNL1        0.1423
     17 H          62.4765   85.5197    7.0479 H       1  UNL1        0.1423
@<TRIPOS>BOND
     1     1     2    1
     2     2     3   ar
     3     3     4   ar
     4     4     5   ar
     5     5     6   ar
     6     6     7   ar
     7     7     8   ar
     8     8     9   ar
     9     9    10   ar
    10    10    11   ar
    11     4    12    1
    12    12    13    1
    13    13    14    1
    14    14    15    1
    15    11     2   ar
    16    15     3    1
    17    11     6   ar
    18     1    16    1
    19     1    17    1
@<TRIPOS>MOLECULE
*****
 17 19 0 0 0
SMALL
GASTEIGER

@<TRIPOS>ATOM
      1 N          62.2339   85.9787   11.7261 N.pl3   1  UNL1       -0.3572
      2 C          62.0316   87.3566   11.1688 C.ar    1  UNL1        0.0400
      3 C          62.7084   88.5317   11.8099 C.ar    1  UNL1        0.0043
      4 C          62.5062   89.9096   11.2527 C.ar    1  UNL1        0.0561
      5 N          61.6271   90.1124   10.0543 N.ar    1  UNL1       -0.2499
      6 C          60.9503   88.9372    9.4131 C.ar    1  UNL1        0.0820
      7 C          60.0712   89.1400    8.2148 C.ar    1  UNL1        0.0191
      8 C          59.3944   87.9649    7.5737 C.ar    1  UNL1        0.0015
      9 C          59.5967   86.5871    8.1309 C.ar    1  UNL1        0.0001
     10 C          60.4757   86.3843    9.3293 C.ar    1  UNL1        0.0027
     11 C          61.1525   87.5593    9.9704 C.ar    1  UNL1        0.0303
     12 C          63.1830   91.0847   11.8939 C.3     1  UNL1        0.0455
     13 C          64.0620   90.8819   13.0922 C.3     1  UNL1        0.0066
     14 C          64.2643   89.5040   13.6495 C.3     1  UNL1        0.0052
     15 C          63.5875   88.3289   13.0084 C.3     1  UNL1        0.0288
     16 H          62.8108   85.8456   12.5126 H       1  UNL1        0.1423
     17 H          61.7897   85.2074   11.3053 H       1  UNL1        0.1423
@<TRIPOS>BOND
     1     1     2    1
     2     2     3   ar
     3     3     4   ar
     4     4     5   ar
     5     5     6   ar
     6     6     7   ar
     7     7     8   ar
     8     8     9   ar
     9     9    10   ar
    10    10    11   ar
    11     4    12    1
    12    12    13    1
    13    13    14    1
    14    14    15    1
    15    11     2   ar
    16    15     3    1
    17    11     6   ar
    18     1    16    1
    19     1    17    1
@<TRIPOS>MOLECULE
*****
 17 19 0 0 0
SMALL
GASTEIGER

@<TRIPOS>ATOM
      1 N          62.2292   85.9623   11.7155 N.pl3   1  UNL1       -0.3572
      2 C          62.0249   87.3385   11.1549 C.ar    1  UNL1        0.0400
      3 C          61.1493   87.5365    9.9533 C.ar    1  UNL1        0.0043
      4 C          60.9450   88.9128    9.3927 C.ar    1  UNL1        0.0561
      5 N          61.6164   90.0910   10.0338 N.ar    1  UNL1       -0.2499
      6 C          62.4921   89.8930   11.2355 C.ar    1  UNL1        0.0820
      7 C          63.1634   91.0712   11.8766 C.ar    1  UNL1        0.0191
      8 C          64.0390   90.8732   13.0783 C.ar    1  UNL1        0.0015
      9 C          64.2433   89.4969   13.6388 C.ar    1  UNL1        0.0001
     10 C          63.5720   88.3187   12.9977 C.ar    1  UNL1        0.0027
     11 C          62.6963   88.5168   11.7961 C.ar    1  UNL1        0.0303
     12 C          60.0693   89.1108    8.1910 C.3     1  UNL1        0.0455
     13 C          59.3980   87.9325    7.5499 C.3     1  UNL1        0.0066
     14 C          59.6022   86.5563    8.1105 C.3     1  UNL1        0.0052
     15 C          60.4779   86.3583    9.3121 C.3     1  UNL1        0.0288
     16 H          61.7886   85.1889   11.2947 H       1  UNL1        0.1423
     17 H          62.8039   85.8323   12.5042 H       1  UNL1        0.1423
@<TRIPOS>BOND
     1     1     2    1
     2     2     3   ar
     3     3     4   ar
     4     4     5   ar
     5     5     6   ar
     6     6     7   ar
     7     7     8   ar
     8     8     9   ar
     9     9    10   ar
    10    10    11   ar
    11     4    12    1
    12    12    13    1
    13    13    14    1
    14    14    15    1
    15    11     2   ar
    16    15     3    1
    17    11     6   ar
    18     1    16    1
    19     1    17    1
@<TRIPOS>MOLECULE
*****
 17 19 0 0 0
SMALL
GASTEIGER

@<TRIPOS>ATOM
      1 N          62.7602   91.5810    9.7120 N.pl3   1  UNL1       -0.3572
      2 C          62.7662   90.3899   10.6237 C.ar    1  UNL1        0.0400
      3 C          61.9737   89.1676   10.2660 C.ar    1  UNL1        0.0043
      4 C          61.9798   87.9765   11.1776 C.ar    1  UNL1        0.0561
      5 N          62.7783   88.0076   12.4470 N.ar    1  UNL1       -0.2499
      6 C          63.5709   89.2299   12.8047 C.ar    1  UNL1        0.0820
      7 C          64.3694   89.2610   14.0741 C.ar    1  UNL1        0.0191
      8 C          65.1619   90.4832   14.4318 C.ar    1  UNL1        0.0015
      9 C          65.1559   91.6744   13.5201 C.ar    1  UNL1        0.0001
     10 C          64.3573   91.6433   12.2508 C.ar    1  UNL1        0.0027
     11 C          63.5648   90.4210   11.8931 C.ar    1  UNL1        0.0303
     12 C          61.1872   86.7542   10.8199 C.3     1  UNL1        0.0455
     13 C          60.3887   86.7231    9.5505 C.3     1  UNL1        0.0066
     14 C          60.3826   87.9142    8.6388 C.3     1  UNL1        0.0052
     15 C          61.1751   89.1365    8.9965 C.3     1  UNL1        0.0288
     16 H          62.2361   91.5606    8.8789 H       1  UNL1        0.1423
     17 H          63.2804   92.3832    9.9468 H       1  UNL1        0.1423
@<TRIPOS>BOND
     1     1     2    1
     2     2     3   ar
     3     3     4   ar
     4     4     5   ar
     5     5     6   ar
     6     6     7   ar
     7     7     8   ar
     8     8     9   ar
     9     9    10   ar
    10    10    11   ar
    11     4    12    1
    12    12    13    1
    13    13    14    1
    14    14    15    1
    15    11     2   ar
    16    15     3    1
    17    11     6   ar
    18     1    16    1
    19     1    17    1
@<TRIPOS>MOLECULE
*****
 17 19 0 0 0
SMALL
GASTEIGER

@<TRIPOS>ATOM
      1 N          62.7566   91.5171    9.7392 N.pl3   1  UNL1       -0.3572
      2 C          62.7892   90.3315   10.6574 C.ar    1  UNL1        0.0400
      3 C          63.5827   90.3892   11.9290 C.ar    1  UNL1        0.0043
      4 C          63.6153   89.2036   12.8472 C.ar    1  UNL1        0.0561
      5 N          62.8543   87.9602   12.4939 N.ar    1  UNL1       -0.2499
      6 C          62.0607   87.9024   11.2223 C.ar    1  UNL1        0.0820
      7 C          61.2998   86.6590   10.8690 C.ar    1  UNL1        0.0191
      8 C          60.5062   86.6013    9.5975 C.ar    1  UNL1        0.0015
      9 C          60.4736   87.7869    8.6792 C.ar    1  UNL1        0.0001
     10 C          61.2346   89.0303    9.0325 C.ar    1  UNL1        0.0027
     11 C          62.0282   89.0880   10.3041 C.ar    1  UNL1        0.0303
     12 C          64.4089   89.2614   14.1188 C.3     1  UNL1        0.0455
     13 C          65.1699   90.5048   14.4721 C.3     1  UNL1        0.0066
     14 C          65.1373   91.6904   13.5539 C.3     1  UNL1        0.0052
     15 C          64.3438   91.6327   12.2823 C.3     1  UNL1        0.0288
     16 H          63.2561   92.3332    9.9710 H       1  UNL1        0.1423
     17 H          62.2358   91.4792    8.9046 H       1  UNL1        0.1423
@<TRIPOS>BOND
     1     1     2    1
     2     2     3   ar
     3     3     4   ar
     4     4     5   ar
     5     5     6   ar
     6     6     7   ar
     7     7     8   ar
     8     8     9   ar
     9     9    10   ar
    10    10    11   ar
    11     4    12    1
    12    12    13    1
    13    13    14    1
    14    14    15    1
    15    11     2   ar
    16    15     3    1
    17    11     6   ar
    18     1    16    1
    19     1    17    1
@<TRIPOS>MOLECULE
*****
 17 19 0 0 0
SMALL
GASTEIGER

@<TRIPOS>ATOM
      1 N          65.1050   93.3390   10.5018 N.pl3   1  UNL1       -0.3572
      2 C          64.8245   92.3528   11.5966 C.ar    1  UNL1        0.0400
      3 C          65.5049   92.4942   12.9259 C.ar    1  UNL1        0.0043
      4 C          65.2244   91.5079   14.0207 C.ar    1  UNL1        0.0561
      5 N          64.2635   90.3803   13.7863 N.ar    1  UNL1       -0.2499
      6 C          63.5831   90.2388   12.4569 C.ar    1  UNL1        0.0820
      7 C          62.6222   89.1111   12.2225 C.ar    1  UNL1        0.0191
      8 C          61.9418   88.9697   10.8932 C.ar    1  UNL1        0.0015
      9 C          62.2223   89.9560    9.7984 C.ar    1  UNL1        0.0001
     10 C          63.1832   91.0836   10.0328 C.ar    1  UNL1        0.0027
     11 C          63.8636   91.2251   11.3621 C.ar    1  UNL1        0.0303
     12 C          65.9049   91.6494   15.3501 C.3     1  UNL1        0.0455
     13 C          66.8657   92.7771   15.5845 C.3     1  UNL1        0.0066
     14 C          67.1462   93.7633   14.4897 C.3     1  UNL1        0.0052
     15 C          66.4659   93.6219   13.1604 C.3     1  UNL1        0.0288
     16 H          65.7357   94.0792   10.6557 H       1  UNL1        0.1423
     17 H          64.6585   93.2462    9.6293 H       1  UNL1        0.1423
@<TRIPOS>BOND
     1     1     2    1
     2     2     3   ar
     3     3     4   ar
     4     4     5   ar
     5     5     6   ar
     6     6     7   ar
     7     7     8   ar
     8     8     9   ar
     9     9    10   ar
    10    10    11   ar
    11     4    12    1
    12    12    13    1
    13    13    14    1
    14    14    15    1
    15    11     2   ar
    16    15     3    1
    17    11     6   ar
    18     1    16    1
    19     1    17    1
@<TRIPOS>MOLECULE
*****
 17 19 0 0 0
SMALL
GASTEIGER

@<TRIPOS>ATOM
      1 N          65.0980   93.3469   10.5020 N.pl3   1  UNL1       -0.3572
      2 C          64.8271   92.3643   11.6024 C.ar    1  UNL1        0.0400
      3 C          63.8769   91.2262   11.3746 C.ar    1  UNL1        0.0043
      4 C          63.6060   90.2436   12.4751 C.ar    1  UNL1        0.0561
      5 N          64.2853   90.3989   13.8033 N.ar    1  UNL1       -0.2499
      6 C          65.2356   91.5371   14.0312 C.ar    1  UNL1        0.0820
      7 C          65.9149   91.6924   15.3595 C.ar    1  UNL1        0.0191
      8 C          66.8650   92.8305   15.5873 C.ar    1  UNL1        0.0015
      9 C          67.1359   93.8132   14.4869 C.ar    1  UNL1        0.0001
     10 C          66.4566   93.6578   13.1586 C.ar    1  UNL1        0.0027
     11 C          65.5064   92.5197   12.9308 C.ar    1  UNL1        0.0303
     12 C          62.6558   89.1055   12.2472 C.3     1  UNL1        0.0455
     13 C          61.9765   88.9501   10.9189 C.3     1  UNL1        0.0066
     14 C          62.2474   89.9327    9.8184 C.3     1  UNL1        0.0052
     15 C          63.1976   91.0708   10.0463 C.3     1  UNL1        0.0288
     16 H          64.6521   93.2449    9.6302 H       1  UNL1        0.1423
     17 H          65.7216   94.0939   10.6515 H       1  UNL1        0.1423
@<TRIPOS>BOND
     1     1     2    1
     2     2     3   ar
     3     3     4   ar
     4     4     5   ar
     5     5     6   ar
     6     6     7   ar
     7     7     8   ar
     8     8     9   ar
     9     9    10   ar
    10    10    11   ar
    11     4    12    1
    12    12    13    1
    13    13    14    1
    14    14    15    1
    15    11     2   ar
    16    15     3    1
    17    11     6   ar
    18     1    16    1
    19     1    17    1
@<TRIPOS>MOLECULE
*****
 17 19 0 0 0
SMALL
GASTEIGER

@<TRIPOS>ATOM
      1 N          64.8419   85.5532   15.7171 N.pl3   1  UNL1       -0.3572
      2 C          64.1494   85.8124   14.4120 C.ar    1  UNL1        0.0400
      3 C          63.6596   84.6632   13.5817 C.ar    1  UNL1        0.0043
      4 C          62.9671   84.9223   12.2766 C.ar    1  UNL1        0.0561
      5 N          62.7644   86.3306   11.8018 N.ar    1  UNL1       -0.2499
      6 C          63.2542   87.4799   12.6321 C.ar    1  UNL1        0.0820
      7 C          63.0515   88.8882   12.1572 C.ar    1  UNL1        0.0191
      8 C          63.5413   90.0374   12.9875 C.ar    1  UNL1        0.0015
      9 C          64.2338   89.7783   14.2926 C.ar    1  UNL1        0.0001
     10 C          64.4365   88.3700   14.7674 C.ar    1  UNL1        0.0027
     11 C          63.9467   87.2208   13.9372 C.ar    1  UNL1        0.0303
     12 C          62.4773   83.7730   11.4464 C.3     1  UNL1        0.0455
     13 C          62.6800   82.3647   11.9212 C.3     1  UNL1        0.0066
     14 C          63.3725   82.1055   13.2263 C.3     1  UNL1        0.0052
     15 C          63.8623   83.2547   14.0566 C.3     1  UNL1        0.0288
     16 H          64.9750   84.6289   16.0287 H       1  UNL1        0.1423
     17 H          65.1634   86.3075   16.2620 H       1  UNL1        0.1423
@<TRIPOS>BOND
     1     1     2    1
     2     2     3   ar
     3     3     4   ar
     4     4     5   ar
     5     5     6   ar
     6     6     7   ar
     7     7     8   ar
     8     8     9   ar
     9     9    10   ar
    10    10    11   ar
    11     4    12    1
    12    12    13    1
    13    13    14    1
    14    14    15    1
    15    11     2   ar
    16    15     3    1
    17    11     6   ar
    18     1    16    1
    19     1    17    1
