@<TRIPOS>MOLECULE
*****
 43 47 0 0 0
SMALL
GASTEIGER

@<TRIPOS>ATOM
      1 C          64.4542   91.5553   12.2340 C.ar    1  UNL1        0.2443
      2 N          63.9480   90.6201   13.2919 N.ar    1  UNL1       -0.1953
      3 C          64.7103   90.4539   14.5731 C.ar    1  UNL1        0.1354
      4 C          65.9787   91.2229   14.7963 C.ar    1  UNL1        0.0359
      5 C          66.4848   92.1581   13.7383 C.ar    1  UNL1        0.0221
      6 C          65.7226   92.3243   12.4572 C.ar    1  UNL1        0.1023
      7 N          66.2288   93.2595   11.3992 N.pl3   1  UNL1       -0.3039
      8 C          67.0859   92.7375   10.2845 C.3     1  UNL1        0.0909
      9 C          67.5920   93.6727    9.2266 C.3     1  UNL1        0.0215
     10 C          67.2410   95.1300    9.2835 C.3     1  UNL1        0.0035
     11 C          66.3839   95.6520   10.3983 C.3     1  UNL1        0.0215
     12 C          65.8778   94.7168   11.4561 C.3     1  UNL1        0.0909
     13 N          64.2042   89.5187   15.6310 N.pl3   1  UNL1       -0.2955
     14 H          64.0322   89.8520   16.5413 H       1  UNL1        0.1537
     15 C          63.9601   88.0758   15.3020 C.ar    1  UNL1        0.0839
     16 C          64.2930   87.5510   13.9368 C.ar    1  UNL1        0.0190
     17 C          64.0489   86.1080   13.6078 C.ar    1  UNL1        0.0160
     18 C          63.4718   85.1898   14.6441 C.ar    1  UNL1        0.0510
     19 C          63.1389   85.7145   16.0093 C.ar    1  UNL1        0.0527
     20 C          63.3830   87.1574   16.3383 C.ar    1  UNL1        0.1532
     21 N          63.2277   83.7467   14.3151 N.pl3   1  UNL1       -0.3046
     22 C          61.9561   83.0825   14.7529 C.3     1  UNL1        0.1081
     23 C          61.7119   81.6395   14.4240 C.3     1  UNL1        0.0938
     24 N          62.7394   80.8608   13.6573 N.3     1  UNL1       -0.2686
     25 C          62.4952   79.4178   13.3283 C.3     1  UNL1        0.0897
     26 C          64.0110   81.5251   13.2195 C.3     1  UNL1        0.0938
     27 C          64.2552   82.9681   13.5484 C.3     1  UNL1        0.1081
     28 O          63.0500   87.6822   17.7035 O.3     1  UNL1       -0.4701
     29 C          62.6349   86.7353   18.7902 C.3     1  UNL1        0.2525
     30 O          63.6920   91.7215   10.9528 O.3     1  UNL1       -0.4350
     31 C          61.9845   88.3870    9.6430 C.ar    1  UNL1        0.0496
     32 C          63.0374   89.3850   10.0241 C.ar    1  UNL1        0.0519
     33 C          62.6390   90.7234   10.5717 C.ar    1  UNL1        0.1485
     34 C          61.1877   91.0638   10.7383 C.ar    1  UNL1        0.0373
     35 C          60.1348   90.0657   10.3572 C.ar    1  UNL1        0.0001
     36 C          60.5332   88.7273    9.8096 C.ar    1  UNL1       -0.0082
     37 C          59.4802   87.7293    9.4285 C.3     1  UNL1        0.0323
     38 C          62.3073   85.8294    9.9657 C.2     1  UNL1        0.2496
     39 O          61.8333   85.9485   11.3839 O.2     1  UNL1       -0.2698
     40 N          62.3829   87.0486    9.0953 N.am    1  UNL1       -0.2805
     41 H          62.6941   86.9704    8.1645 H       1  UNL1        0.1552
     42 C          63.8223   83.7207   10.0585 C.2     1  UNL1        0.0048
     43 C          62.7058   84.4910    9.4181 C.2     1  UNL1        0.0580
@<TRIPOS>BOND
     1    42    43    2
     2    43    38    1
     3    38    39    2
     4    38    40   am
     5    40    31    1
     6    31    32   ar
     7    32    33   ar
     8    33    30    1
     9    30     1    1
    10     1     2   ar
    11     2     3   ar
    12     3    13    1
    13    13    15    1
    14    15    16   ar
    15    16    17   ar
    16    17    18   ar
    17    18    21    1
    18    21    22    1
    19    22    23    1
    20    23    24    1
    21    24    25    1
    22    24    26    1
    23    26    27    1
    24    18    19   ar
    25    19    20   ar
    26    20    28    1
    27    28    29    1
    28     3     4   ar
    29     4     5   ar
    30     5     6   ar
    31     6     7    1
    32     7     8    1
    33     8     9    1
    34     9    10    1
    35    10    11    1
    36    11    12    1
    37    33    34   ar
    38    34    35   ar
    39    35    36   ar
    40    36    37    1
    41    36    31   ar
    42     6     1   ar
    43    12     7    1
    44    20    15   ar
    45    27    21    1
    46    40    41    1
    47    13    14    1
@<TRIPOS>MOLECULE
*****
 43 47 0 0 0
SMALL
GASTEIGER

@<TRIPOS>ATOM
      1 C          62.9093   86.3111   13.3434 C.ar    1  UNL1        0.2443
      2 N          63.1332   87.7432   13.7296 N.ar    1  UNL1       -0.1953
      3 C          64.3129   88.1156   14.5778 C.ar    1  UNL1        0.1354
      4 C          65.2687   87.0558   15.0399 C.ar    1  UNL1        0.0359
      5 C          65.0448   85.6238   14.6537 C.ar    1  UNL1        0.0221
      6 C          63.8651   85.2515   13.8054 C.ar    1  UNL1        0.1023
      7 N          63.6412   83.8194   13.4192 N.pl3   1  UNL1       -0.3039
      8 C          64.5811   83.1442   12.4650 C.3     1  UNL1        0.0909
      9 C          64.3572   81.7122   12.0789 C.3     1  UNL1        0.0215
     10 C          63.1934   80.9553   12.6470 C.3     1  UNL1        0.0035
     11 C          62.2535   81.6305   13.6012 C.3     1  UNL1        0.0215
     12 C          62.4774   83.0626   13.9873 C.3     1  UNL1        0.0909
     13 N          64.5368   89.5476   14.9640 N.pl3   1  UNL1       -0.2955
     14 H          64.4103   89.8310   15.8983 H       1  UNL1        0.1537
     15 C          64.9535   90.5477   13.9267 C.ar    1  UNL1        0.0839
     16 C          64.1018   90.7672   12.7117 C.ar    1  UNL1        0.0190
     17 C          64.5185   91.7674   11.6743 C.ar    1  UNL1        0.0160
     18 C          65.7870   92.5480   11.8521 C.ar    1  UNL1        0.0510
     19 C          66.6387   92.3285   13.0671 C.ar    1  UNL1        0.0527
     20 C          66.2220   91.3284   14.1044 C.ar    1  UNL1        0.1532
     21 N          66.2037   93.5482   10.8147 N.pl3   1  UNL1       -0.3046
     22 C          65.5961   94.9196   10.8084 C.3     1  UNL1        0.1081
     23 C          66.0128   95.9198    9.7711 C.3     1  UNL1        0.0938
     24 N          67.0371   95.5486    8.7402 N.3     1  UNL1       -0.2686
     25 C          67.4539   96.5488    7.7029 C.3     1  UNL1        0.0897
     26 C          67.6448   94.1772    8.7466 C.3     1  UNL1        0.0938
     27 C          67.2281   93.1770    9.7838 C.3     1  UNL1        0.1081
     28 O          67.0738   91.1088   15.3195 O.3     1  UNL1       -0.4701
     29 C          68.0250   92.1769   15.7715 C.3     1  UNL1        0.2525
     30 O          61.7295   85.9387   12.4951 O.3     1  UNL1       -0.4350
     31 C          61.1335   86.1772    8.5787 C.ar    1  UNL1        0.0496
     32 C          60.9605   86.3857   10.0540 C.ar    1  UNL1        0.0519
     33 C          61.9026   85.7301   11.0197 C.ar    1  UNL1        0.1485
     34 C          63.0177   84.8659   10.5102 C.ar    1  UNL1        0.0373
     35 C          63.1907   84.6574    9.0349 C.ar    1  UNL1        0.0001
     36 C          62.2486   85.3130    8.0692 C.ar    1  UNL1       -0.0082
     37 C          62.4217   85.1044    6.5938 C.3     1  UNL1        0.0323
     38 C          59.8872   88.2963    7.7384 C.2     1  UNL1        0.2496
     39 O          60.5251   89.1041    8.8295 O.2     1  UNL1       -0.2698
     40 N          60.1915   86.8328    7.6130 N.am    1  UNL1       -0.2805
     41 H          59.7728   86.3026    6.8968 H       1  UNL1        0.1552
     42 C          59.4201   90.0876    5.9155 C.2     1  UNL1        0.0048
     43 C          58.9451   88.9519    6.7727 C.2     1  UNL1        0.0580
@<TRIPOS>BOND
     1    42    43    2
     2    43    38    1
     3    38    39    2
     4    38    40   am
     5    40    31    1
     6    31    32   ar
     7    32    33   ar
     8    33    30    1
     9    30     1    1
    10     1     2   ar
    11     2     3   ar
    12     3    13    1
    13    13    15    1
    14    15    16   ar
    15    16    17   ar
    16    17    18   ar
    17    18    21    1
    18    21    22    1
    19    22    23    1
    20    23    24    1
    21    24    25    1
    22    24    26    1
    23    26    27    1
    24    18    19   ar
    25    19    20   ar
    26    20    28    1
    27    28    29    1
    28     3     4   ar
    29     4     5   ar
    30     5     6   ar
    31     6     7    1
    32     7     8    1
    33     8     9    1
    34     9    10    1
    35    10    11    1
    36    11    12    1
    37    33    34   ar
    38    34    35   ar
    39    35    36   ar
    40    36    37    1
    41    36    31   ar
    42     6     1   ar
    43    12     7    1
    44    20    15   ar
    45    27    21    1
    46    40    41    1
    47    13    14    1
@<TRIPOS>MOLECULE
*****
 43 47 0 0 0
SMALL
GASTEIGER

@<TRIPOS>ATOM
      1 C          63.5955   86.6639   13.4461 C.ar    1  UNL1        0.2443
      2 N          63.7542   88.1304   13.7187 N.ar    1  UNL1       -0.1953
      3 C          63.8414   88.6254   15.1320 C.ar    1  UNL1        0.1354
      4 C          63.7700   87.6538   16.2727 C.ar    1  UNL1        0.0359
      5 C          63.6112   86.1874   16.0000 C.ar    1  UNL1        0.0221
      6 C          63.5240   85.6925   14.5867 C.ar    1  UNL1        0.1023
      7 N          63.3653   84.2260   14.3140 N.pl3   1  UNL1       -0.3039
      8 C          62.1386   83.5037   14.7868 C.3     1  UNL1        0.0909
      9 C          61.9799   82.0373   14.5141 C.3     1  UNL1        0.0215
     10 C          63.0479   81.2931   13.7687 C.3     1  UNL1        0.0035
     11 C          64.2746   82.0154   13.2959 C.3     1  UNL1        0.0215
     12 C          64.4332   83.4818   13.5686 C.3     1  UNL1        0.0909
     13 N          64.0002   90.0918   15.4047 N.pl3   1  UNL1       -0.2955
     14 H          63.7598   90.4573   16.2867 H       1  UNL1        0.1537
     15 C          64.5251   91.0012   14.3336 C.ar    1  UNL1        0.0839
     16 C          63.9547   90.9355   12.9479 C.ar    1  UNL1        0.0190
     17 C          64.4797   91.8450   11.8768 C.ar    1  UNL1        0.0160
     18 C          65.5751   92.8202   12.1915 C.ar    1  UNL1        0.0510
     19 C          66.1455   92.8860   13.5772 C.ar    1  UNL1        0.0527
     20 C          65.6206   91.9765   14.6483 C.ar    1  UNL1        0.1532
     21 N          66.1001   93.7298   11.1203 N.pl3   1  UNL1       -0.3046
     22 C          66.9827   93.1825   10.0379 C.3     1  UNL1        0.1081
     23 C          67.5077   94.0920    8.9669 C.3     1  UNL1        0.0938
     24 N          67.1501   95.5487    8.9782 N.3     1  UNL1       -0.2686
     25 C          67.6752   96.4582    7.9071 C.3     1  UNL1        0.0897
     26 C          66.2676   96.0959   10.0606 C.3     1  UNL1        0.0938
     27 C          65.7426   95.1865   11.1317 C.3     1  UNL1        0.1081
     28 O          66.1910   92.0423   16.0340 O.3     1  UNL1       -0.4701
     29 C          67.5668   92.5982   16.2532 C.3     1  UNL1        0.2525
     30 O          63.5082   86.1690   12.0328 O.3     1  UNL1       -0.4350
     31 C          61.1164   86.7042    8.9114 C.ar    1  UNL1        0.0496
     32 C          62.0636   86.0549    9.8763 C.ar    1  UNL1        0.0519
     33 C          62.5610   86.8184   11.0678 C.ar    1  UNL1        0.1485
     34 C          62.1111   88.2313   11.2944 C.ar    1  UNL1        0.0373
     35 C          61.1639   88.8806   10.3294 C.ar    1  UNL1        0.0001
     36 C          60.6666   88.1171    9.1380 C.ar    1  UNL1       -0.0082
     37 C          59.7193   88.7665    8.1730 C.3     1  UNL1        0.0323
     38 C          61.5385   85.0066    6.9905 C.2     1  UNL1        0.2496
     39 O          62.9554   84.8361    7.4525 O.2     1  UNL1       -0.2698
     40 N          60.6190   85.9407    7.7199 N.am    1  UNL1       -0.2805
     41 H          59.6891   86.0526    7.4167 H       1  UNL1        0.1552
     42 C          61.9225   84.0704    4.5975 C.2     1  UNL1        0.0048
     43 C          61.0411   84.2431    5.7990 C.2     1  UNL1        0.0580
@<TRIPOS>BOND
     1    42    43    2
     2    43    38    1
     3    38    39    2
     4    38    40   am
     5    40    31    1
     6    31    32   ar
     7    32    33   ar
     8    33    30    1
     9    30     1    1
    10     1     2   ar
    11     2     3   ar
    12     3    13    1
    13    13    15    1
    14    15    16   ar
    15    16    17   ar
    16    17    18   ar
    17    18    21    1
    18    21    22    1
    19    22    23    1
    20    23    24    1
    21    24    25    1
    22    24    26    1
    23    26    27    1
    24    18    19   ar
    25    19    20   ar
    26    20    28    1
    27    28    29    1
    28     3     4   ar
    29     4     5   ar
    30     5     6   ar
    31     6     7    1
    32     7     8    1
    33     8     9    1
    34     9    10    1
    35    10    11    1
    36    11    12    1
    37    33    34   ar
    38    34    35   ar
    39    35    36   ar
    40    36    37    1
    41    36    31   ar
    42     6     1   ar
    43    12     7    1
    44    20    15   ar
    45    27    21    1
    46    40    41    1
    47    13    14    1
@<TRIPOS>MOLECULE
*****
 43 47 0 0 0
SMALL
GASTEIGER

@<TRIPOS>ATOM
      1 C          63.5523   85.9544   13.4805 C.ar    1  UNL1        0.2443
      2 N          63.7622   87.3976   13.8317 N.ar    1  UNL1       -0.1953
      3 C          63.7886   87.8234   15.2697 C.ar    1  UNL1        0.1354
      4 C          63.6051   86.8060   16.3566 C.ar    1  UNL1        0.0359
      5 C          63.3952   85.3629   16.0055 C.ar    1  UNL1        0.0221
      6 C          63.3688   84.9371   14.5674 C.ar    1  UNL1        0.1023
      7 N          63.1589   83.4939   14.2163 N.pl3   1  UNL1       -0.3039
      8 C          61.8895   82.8018   14.6156 C.3     1  UNL1        0.0909
      9 C          61.6796   81.3587   14.2645 C.3     1  UNL1        0.0215
     10 C          62.7392   80.6077   13.5140 C.3     1  UNL1        0.0035
     11 C          64.0086   81.2998   13.1146 C.3     1  UNL1        0.0215
     12 C          64.2185   82.7429   13.4658 C.3     1  UNL1        0.0909
     13 N          63.9985   89.2665   15.6209 N.pl3   1  UNL1       -0.2955
     14 H          63.7784   89.5904   16.5242 H       1  UNL1        0.1537
     15 C          64.5438   90.2161   14.5958 C.ar    1  UNL1        0.0839
     16 C          65.9119   90.8053   14.7719 C.ar    1  UNL1        0.0190
     17 C          66.4572   91.7550   13.7468 C.ar    1  UNL1        0.0160
     18 C          65.6343   92.1155   12.5456 C.ar    1  UNL1        0.0510
     19 C          64.2661   91.5263   12.3695 C.ar    1  UNL1        0.0527
     20 C          63.7209   90.5767   13.3946 C.ar    1  UNL1        0.1532
     21 N          66.1796   93.0652   11.5205 N.pl3   1  UNL1       -0.3046
     22 C          65.9351   94.5387   11.6581 C.3     1  UNL1        0.1081
     23 C          66.4803   95.4884   10.6330 C.3     1  UNL1        0.0938
     24 N          67.2700   94.9645    9.4703 N.3     1  UNL1       -0.2686
     25 C          67.8153   95.9142    8.4452 C.3     1  UNL1        0.0897
     26 C          67.5145   93.4910    9.3327 C.3     1  UNL1        0.0938
     27 C          66.9693   92.5413   10.3578 C.3     1  UNL1        0.1081
     28 O          62.3527   89.9875   13.2185 O.3     1  UNL1       -0.4701
     29 C          61.5095   90.3871   12.0440 C.3     1  UNL1        0.2525
     30 O          63.5258   85.5286   12.0425 O.3     1  UNL1       -0.4350
     31 C          61.3131   86.0722    8.7930 C.ar    1  UNL1        0.0496
     32 C          62.4104   85.5937    9.6969 C.ar    1  UNL1        0.0519
     33 C          62.4285   86.0073   11.1386 C.ar    1  UNL1        0.1485
     34 C          61.3493   86.8994   11.6765 C.ar    1  UNL1        0.0373
     35 C          60.2521   87.3780   10.7727 C.ar    1  UNL1        0.0001
     36 C          60.2340   86.9644    9.3310 C.ar    1  UNL1       -0.0082
     37 C          59.1366   87.4430    8.4271 C.3     1  UNL1        0.0323
     38 C          62.4034   84.8115    6.8001 C.2     1  UNL1        0.2496
     39 O          63.5299   84.3779    7.6907 O.2     1  UNL1       -0.2698
     40 N          61.2950   85.6586    7.3513 N.am    1  UNL1       -0.2805
     41 H          60.5557   85.9432    6.7668 H       1  UNL1        0.1552
     42 C          61.1797   83.7091    4.7908 C.2     1  UNL1        0.0048
     43 C          62.3853   84.3979    5.3584 C.2     1  UNL1        0.0580
@<TRIPOS>BOND
     1    42    43    2
     2    43    38    1
     3    38    39    2
     4    38    40   am
     5    40    31    1
     6    31    32   ar
     7    32    33   ar
     8    33    30    1
     9    30     1    1
    10     1     2   ar
    11     2     3   ar
    12     3    13    1
    13    13    15    1
    14    15    16   ar
    15    16    17   ar
    16    17    18   ar
    17    18    21    1
    18    21    22    1
    19    22    23    1
    20    23    24    1
    21    24    25    1
    22    24    26    1
    23    26    27    1
    24    18    19   ar
    25    19    20   ar
    26    20    28    1
    27    28    29    1
    28     3     4   ar
    29     4     5   ar
    30     5     6   ar
    31     6     7    1
    32     7     8    1
    33     8     9    1
    34     9    10    1
    35    10    11    1
    36    11    12    1
    37    33    34   ar
    38    34    35   ar
    39    35    36   ar
    40    36    37    1
    41    36    31   ar
    42     6     1   ar
    43    12     7    1
    44    20    15   ar
    45    27    21    1
    46    40    41    1
    47    13    14    1
@<TRIPOS>MOLECULE
*****
 43 47 0 0 0
SMALL
GASTEIGER

@<TRIPOS>ATOM
      1 C          60.9721   88.0426    9.7945 C.ar    1  UNL1        0.2443
      2 N          60.1342   89.0245    9.0305 N.ar    1  UNL1       -0.1953
      3 C          59.4782   88.6113    7.7464 C.ar    1  UNL1        0.1354
      4 C          59.6601   87.2161    7.2264 C.ar    1  UNL1        0.0359
      5 C          60.4980   86.2342    7.9904 C.ar    1  UNL1        0.0221
      6 C          61.1540   86.6475    9.2745 C.ar    1  UNL1        0.1023
      7 N          61.9919   85.6655   10.0386 N.pl3   1  UNL1       -0.3039
      8 C          62.9636   84.7835    9.3119 C.3     1  UNL1        0.0909
      9 C          63.8014   83.8017   10.0760 C.3     1  UNL1        0.0215
     10 C          63.6677   83.7017   11.5667 C.3     1  UNL1        0.0035
     11 C          62.6960   84.5837   12.2933 C.3     1  UNL1        0.0215
     12 C          61.8582   85.5656   11.5292 C.3     1  UNL1        0.0909
     13 N          58.6403   89.5931    6.9823 N.pl3   1  UNL1       -0.2955
     14 H          57.6835   89.6920    7.1922 H       1  UNL1        0.1537
     15 C          59.2602   90.4245    5.8985 C.ar    1  UNL1        0.0839
     16 C          60.7006   90.2244    5.5309 C.ar    1  UNL1        0.0190
     17 C          61.3205   91.0557    4.4470 C.ar    1  UNL1        0.0160
     18 C          60.4999   92.0871    3.7309 C.ar    1  UNL1        0.0510
     19 C          59.0595   92.2872    4.0986 C.ar    1  UNL1        0.0527
     20 C          58.4396   91.4559    5.1823 C.ar    1  UNL1        0.1532
     21 N          61.1198   92.9185    2.6471 N.pl3   1  UNL1       -0.3046
     22 C          62.5609   92.7202    2.2812 C.3     1  UNL1        0.1081
     23 C          63.1808   93.5515    1.1974 C.3     1  UNL1        0.0938
     24 N          62.3596   94.5811    0.4795 N.3     1  UNL1       -0.2686
     25 C          62.9794   95.4125   -0.6044 C.3     1  UNL1        0.0897
     26 C          60.9184   94.7794    0.8454 C.3     1  UNL1        0.0938
     27 C          60.2986   93.9481    1.9291 C.3     1  UNL1        0.1081
     28 O          56.9992   91.6560    5.5500 O.3     1  UNL1       -0.4701
     29 C          55.9264   90.9114    4.8121 C.3     1  UNL1        0.2525
     30 O          61.6281   88.4559   11.0786 O.3     1  UNL1       -0.4350
     31 C          64.4023   91.0178   12.2996 C.ar    1  UNL1        0.0496
     32 C          63.4648   89.8470   12.2791 C.ar    1  UNL1        0.0519
     33 C          62.5656   89.6267   11.0990 C.ar    1  UNL1        0.1485
     34 C          62.6037   90.5772    9.9392 C.ar    1  UNL1        0.0373
     35 C          63.5412   91.7480    9.9596 C.ar    1  UNL1        0.0001
     36 C          64.4404   91.9683   11.1398 C.ar    1  UNL1       -0.0082
     37 C          65.3779   93.1391   11.1602 C.3     1  UNL1        0.0323
     38 C          64.7116   91.4714   14.8389 C.2     1  UNL1        0.2496
     39 O          63.2223   91.4843   15.0180 O.2     1  UNL1       -0.2698
     40 N          65.3015   91.2381   13.4797 N.am    1  UNL1       -0.2805
     41 H          66.2789   91.2296   13.3622 H       1  UNL1        0.1552
     42 C          66.7396   92.6755   15.9286 C.2     1  UNL1        0.0048
     43 C          65.6108   91.6917   16.0191 C.2     1  UNL1        0.0580
@<TRIPOS>BOND
     1    42    43    2
     2    43    38    1
     3    38    39    2
     4    38    40   am
     5    40    31    1
     6    31    32   ar
     7    32    33   ar
     8    33    30    1
     9    30     1    1
    10     1     2   ar
    11     2     3   ar
    12     3    13    1
    13    13    15    1
    14    15    16   ar
    15    16    17   ar
    16    17    18   ar
    17    18    21    1
    18    21    22    1
    19    22    23    1
    20    23    24    1
    21    24    25    1
    22    24    26    1
    23    26    27    1
    24    18    19   ar
    25    19    20   ar
    26    20    28    1
    27    28    29    1
    28     3     4   ar
    29     4     5   ar
    30     5     6   ar
    31     6     7    1
    32     7     8    1
    33     8     9    1
    34     9    10    1
    35    10    11    1
    36    11    12    1
    37    33    34   ar
    38    34    35   ar
    39    35    36   ar
    40    36    37    1
    41    36    31   ar
    42     6     1   ar
    43    12     7    1
    44    20    15   ar
    45    27    21    1
    46    40    41    1
    47    13    14    1
@<TRIPOS>MOLECULE
*****
 43 47 0 0 0
SMALL
GASTEIGER

@<TRIPOS>ATOM
      1 C          63.7126   86.2401   13.2443 C.ar    1  UNL1        0.2443
      2 N          63.8685   87.7039   13.5327 N.ar    1  UNL1       -0.1953
      3 C          63.8247   88.1982   14.9482 C.ar    1  UNL1        0.1354
      4 C          63.6251   87.2287   16.0754 C.ar    1  UNL1        0.0359
      5 C          63.4692   85.7650   15.7869 C.ar    1  UNL1        0.0221
      6 C          63.5130   85.2707   14.3714 C.ar    1  UNL1        0.1023
      7 N          63.3571   83.8069   14.0830 N.pl3   1  UNL1       -0.3039
      8 C          62.1568   83.0658   14.5927 C.3     1  UNL1        0.0909
      9 C          62.0009   81.6021   14.3043 C.3     1  UNL1        0.0215
     10 C          63.0454   80.8795   13.5062 C.3     1  UNL1        0.0035
     11 C          64.2457   81.6207   12.9965 C.3     1  UNL1        0.0215
     12 C          64.4016   83.0844   13.2849 C.3     1  UNL1        0.0909
     13 N          63.9806   89.6619   15.2367 N.pl3   1  UNL1       -0.2955
     14 H          63.7435   90.0168   16.1238 H       1  UNL1        0.1537
     15 C          64.4978   90.5849   14.1734 C.ar    1  UNL1        0.0839
     16 C          63.8885   90.5664   12.8029 C.ar    1  UNL1        0.0190
     17 C          64.4057   91.4894   11.7396 C.ar    1  UNL1        0.0160
     18 C          65.5323   92.4309   12.0469 C.ar    1  UNL1        0.0510
     19 C          66.1417   92.4494   13.4174 C.ar    1  UNL1        0.0527
     20 C          65.6245   91.5264   14.4807 C.ar    1  UNL1        0.1532
     21 N          66.0496   93.3539   10.9836 N.pl3   1  UNL1       -0.3046
     22 C          67.1288   92.8922   10.0497 C.3     1  UNL1        0.1081
     23 C          67.6460   93.8151    8.9864 C.3     1  UNL1        0.0938
     24 N          67.0841   95.1999    8.8571 N.3     1  UNL1       -0.2686
     25 C          67.6014   96.1229    7.7938 C.3     1  UNL1        0.0897
     26 C          66.0049   95.6616    9.7910 C.3     1  UNL1        0.0938
     27 C          65.4877   94.7387   10.8542 C.3     1  UNL1        0.1081
     28 O          66.2338   91.5449   15.8512 O.3     1  UNL1       -0.4701
     29 C          67.4525   92.3774   16.1190 C.3     1  UNL1        0.2525
     30 O          63.7564   85.7458   11.8288 O.3     1  UNL1       -0.4350
     31 C          60.4451   87.3580   10.3503 C.ar    1  UNL1        0.0496
     32 C          61.5727   87.0458   11.2889 C.ar    1  UNL1        0.0519
     33 C          62.6287   86.0580   10.8901 C.ar    1  UNL1        0.1485
     34 C          62.5571   85.3824    9.5528 C.ar    1  UNL1        0.0373
     35 C          61.4295   85.6946    8.6143 C.ar    1  UNL1        0.0001
     36 C          60.3735   86.6824    9.0130 C.ar    1  UNL1       -0.0082
     37 C          59.2458   86.9947    8.0744 C.3     1  UNL1        0.0323
     38 C          59.6729   89.3552   11.8217 C.2     1  UNL1        0.2496
     39 O          61.0128   89.3768   12.4957 O.2     1  UNL1       -0.2698
     40 N          59.3890   88.3459   10.7490 N.am    1  UNL1       -0.2805
     41 H          58.5096   88.3317   10.3067 H       1  UNL1        0.1552
     42 C          58.5505   91.6823   11.5481 C.2     1  UNL1        0.0048
     43 C          58.6168   90.3430   12.2204 C.2     1  UNL1        0.0580
@<TRIPOS>BOND
     1    42    43    2
     2    43    38    1
     3    38    39    2
     4    38    40   am
     5    40    31    1
     6    31    32   ar
     7    32    33   ar
     8    33    30    1
     9    30     1    1
    10     1     2   ar
    11     2     3   ar
    12     3    13    1
    13    13    15    1
    14    15    16   ar
    15    16    17   ar
    16    17    18   ar
    17    18    21    1
    18    21    22    1
    19    22    23    1
    20    23    24    1
    21    24    25    1
    22    24    26    1
    23    26    27    1
    24    18    19   ar
    25    19    20   ar
    26    20    28    1
    27    28    29    1
    28     3     4   ar
    29     4     5   ar
    30     5     6   ar
    31     6     7    1
    32     7     8    1
    33     8     9    1
    34     9    10    1
    35    10    11    1
    36    11    12    1
    37    33    34   ar
    38    34    35   ar
    39    35    36   ar
    40    36    37    1
    41    36    31   ar
    42     6     1   ar
    43    12     7    1
    44    20    15   ar
    45    27    21    1
    46    40    41    1
    47    13    14    1
@<TRIPOS>MOLECULE
*****
 43 47 0 0 0
SMALL
GASTEIGER

@<TRIPOS>ATOM
      1 C          62.3889   86.5947   10.3039 C.ar    1  UNL1        0.2443
      2 N          62.3969   87.5570   11.4546 N.ar    1  UNL1       -0.1953
      3 C          61.5385   88.7863   11.4101 C.ar    1  UNL1        0.1354
      4 C          60.6723   89.0534   10.2149 C.ar    1  UNL1        0.0359
      5 C          60.6644   88.0911    9.0643 C.ar    1  UNL1        0.0221
      6 C          61.5227   86.8617    9.1088 C.ar    1  UNL1        0.1023
      7 N          61.5147   85.8994    7.9581 N.pl3   1  UNL1       -0.3039
      8 C          60.2230   85.5534    7.2788 C.3     1  UNL1        0.0909
      9 C          60.2151   84.5911    6.1281 C.3     1  UNL1        0.0215
     10 C          61.4989   83.9749    5.6569 C.3     1  UNL1        0.0035
     11 C          62.7907   84.3210    6.3363 C.3     1  UNL1        0.0215
     12 C          62.7986   85.2832    7.4869 C.3     1  UNL1        0.0909
     13 N          61.5465   89.7486   12.5607 N.pl3   1  UNL1       -0.2955
     14 H          60.7051   89.9742   13.0195 H       1  UNL1        0.1537
     15 C          62.8362   90.3671   13.0123 C.ar    1  UNL1        0.0839
     16 C          63.6920   91.1158   12.0339 C.ar    1  UNL1        0.0190
     17 C          64.9818   91.7343   12.4855 C.ar    1  UNL1        0.0160
     18 C          65.4158   91.6040   13.9154 C.ar    1  UNL1        0.0510
     19 C          64.5601   90.8553   14.8937 C.ar    1  UNL1        0.0527
     20 C          63.2703   90.2368   14.4422 C.ar    1  UNL1        0.1532
     21 N          66.7057   92.2225   14.3670 N.pl3   1  UNL1       -0.3046
     22 C          66.7140   93.1822   15.5198 C.3     1  UNL1        0.1081
     23 C          68.0038   93.8007   15.9714 C.3     1  UNL1        0.0938
     24 N          69.2851   93.4595   15.2703 N.3     1  UNL1       -0.2686
     25 C          70.5750   94.0780   15.7219 C.3     1  UNL1        0.0897
     26 C          69.2767   92.4998   14.1175 C.3     1  UNL1        0.0938
     27 C          67.9870   91.8813   13.6659 C.3     1  UNL1        0.1081
     28 O          62.4146   89.4881   15.4205 O.3     1  UNL1       -0.4701
     29 C          62.9135   89.2336   16.8120 C.3     1  UNL1        0.2525
     30 O          63.2472   85.3653   10.3484 O.3     1  UNL1       -0.4350
     31 C          62.7777   83.6005   13.8719 C.ar    1  UNL1        0.0496
     32 C          63.0347   84.6575   12.8392 C.ar    1  UNL1        0.0519
     33 C          62.9903   84.3081   11.3811 C.ar    1  UNL1        0.1485
     34 C          62.6889   82.9017   10.9557 C.ar    1  UNL1        0.0373
     35 C          62.4319   81.8446   11.9884 C.ar    1  UNL1        0.0001
     36 C          62.4763   82.1940   13.4465 C.ar    1  UNL1       -0.0082
     37 C          62.2194   81.1368   14.4792 C.3     1  UNL1        0.0323
     38 C          63.3748   85.2739   15.7674 C.2     1  UNL1        0.2496
     39 O          63.8832   86.2486   14.7468 O.2     1  UNL1       -0.2698
     40 N          62.8221   83.9499   15.3299 N.am    1  UNL1       -0.2805
     41 H          62.4885   83.3101   15.9998 H       1  UNL1        0.1552
     42 C          62.2877   86.3857   17.8488 C.2     1  UNL1        0.0048
     43 C          63.4192   85.6233   17.2255 C.2     1  UNL1        0.0580
@<TRIPOS>BOND
     1    42    43    2
     2    43    38    1
     3    38    39    2
     4    38    40   am
     5    40    31    1
     6    31    32   ar
     7    32    33   ar
     8    33    30    1
     9    30     1    1
    10     1     2   ar
    11     2     3   ar
    12     3    13    1
    13    13    15    1
    14    15    16   ar
    15    16    17   ar
    16    17    18   ar
    17    18    21    1
    18    21    22    1
    19    22    23    1
    20    23    24    1
    21    24    25    1
    22    24    26    1
    23    26    27    1
    24    18    19   ar
    25    19    20   ar
    26    20    28    1
    27    28    29    1
    28     3     4   ar
    29     4     5   ar
    30     5     6   ar
    31     6     7    1
    32     7     8    1
    33     8     9    1
    34     9    10    1
    35    10    11    1
    36    11    12    1
    37    33    34   ar
    38    34    35   ar
    39    35    36   ar
    40    36    37    1
    41    36    31   ar
    42     6     1   ar
    43    12     7    1
    44    20    15   ar
    45    27    21    1
    46    40    41    1
    47    13    14    1
@<TRIPOS>MOLECULE
*****
 43 47 0 0 0
SMALL
GASTEIGER

@<TRIPOS>ATOM
      1 C          62.3044   86.4283   10.2854 C.ar    1  UNL1        0.2443
      2 N          62.2713   87.3548   11.4646 N.ar    1  UNL1       -0.1953
      3 C          61.3991   88.5749   11.4356 C.ar    1  UNL1        0.1354
      4 C          60.5600   88.8683   10.2273 C.ar    1  UNL1        0.0359
      5 C          60.5930   87.9418    9.0482 C.ar    1  UNL1        0.0221
      6 C          61.4652   86.7218    9.0772 C.ar    1  UNL1        0.1023
      7 N          61.4983   85.7952    7.8980 N.pl3   1  UNL1       -0.3039
      8 C          62.8032   85.2212    7.4316 C.3     1  UNL1        0.0909
      9 C          62.8362   84.2947    6.2524 C.3     1  UNL1        0.0215
     10 C          61.5643   83.9422    5.5397 C.3     1  UNL1        0.0035
     11 C          60.2593   84.5162    6.0062 C.3     1  UNL1        0.0215
     12 C          60.2264   85.4427    7.1853 C.3     1  UNL1        0.0909
     13 N          61.3660   89.5014   12.6147 N.pl3   1  UNL1       -0.2955
     14 H          60.5118   89.6970   13.0632 H       1  UNL1        0.1537
     15 C          62.6346   90.1298   13.1105 C.ar    1  UNL1        0.0839
     16 C          63.2093   89.7167   14.4330 C.ar    1  UNL1        0.0190
     17 C          64.4779   90.3452   14.9288 C.ar    1  UNL1        0.0160
     18 C          65.1717   91.3868   14.1020 C.ar    1  UNL1        0.0510
     19 C          64.5970   91.8000   12.7795 C.ar    1  UNL1        0.0527
     20 C          63.3285   91.1715   12.2837 C.ar    1  UNL1        0.1532
     21 N          66.4403   92.0153   14.5978 N.pl3   1  UNL1       -0.3046
     22 C          67.6942   91.9192   13.7802 C.3     1  UNL1        0.1081
     23 C          68.9628   92.5477   14.2759 C.3     1  UNL1        0.0938
     24 N          68.9774   93.2722   15.5892 N.3     1  UNL1       -0.2686
     25 C          70.2460   93.9007   16.0849 C.3     1  UNL1        0.0897
     26 C          67.7235   93.3683   16.4067 C.3     1  UNL1        0.0938
     27 C          66.4550   92.7399   15.9111 C.3     1  UNL1        0.1081
     28 O          62.7538   91.5847   10.9612 O.3     1  UNL1       -0.4701
     29 C          63.4560   91.2123    9.6891 C.3     1  UNL1        0.2525
     30 O          63.1766   85.2083   10.3144 O.3     1  UNL1       -0.4350
     31 C          62.5309   83.5113   13.8434 C.ar    1  UNL1        0.0496
     32 C          62.7441   84.5608   12.7931 C.ar    1  UNL1        0.0519
     33 C          62.9634   84.1587   11.3647 C.ar    1  UNL1        0.1485
     34 C          62.9694   82.7072   10.9866 C.ar    1  UNL1        0.0373
     35 C          62.7562   81.6577   12.0369 C.ar    1  UNL1        0.0001
     36 C          62.5369   82.0598   13.4653 C.ar    1  UNL1       -0.0082
     37 C          62.3237   81.0102   14.5156 C.3     1  UNL1        0.0323
     38 C          62.9610   85.1538   15.8099 C.2     1  UNL1        0.2496
     39 O          63.8296   85.9923   14.9196 O.2     1  UNL1       -0.2698
     40 N          62.3117   83.9133   15.2718 N.am    1  UNL1       -0.2805
     41 H          61.7416   83.3630   15.8561 H       1  UNL1        0.1552
     42 C          62.6798   87.0084   17.6075 C.2     1  UNL1        0.0048
     43 C          62.7417   85.5558   17.2383 C.2     1  UNL1        0.0580
@<TRIPOS>BOND
     1    42    43    2
     2    43    38    1
     3    38    39    2
     4    38    40   am
     5    40    31    1
     6    31    32   ar
     7    32    33   ar
     8    33    30    1
     9    30     1    1
    10     1     2   ar
    11     2     3   ar
    12     3    13    1
    13    13    15    1
    14    15    16   ar
    15    16    17   ar
    16    17    18   ar
    17    18    21    1
    18    21    22    1
    19    22    23    1
    20    23    24    1
    21    24    25    1
    22    24    26    1
    23    26    27    1
    24    18    19   ar
    25    19    20   ar
    26    20    28    1
    27    28    29    1
    28     3     4   ar
    29     4     5   ar
    30     5     6   ar
    31     6     7    1
    32     7     8    1
    33     8     9    1
    34     9    10    1
    35    10    11    1
    36    11    12    1
    37    33    34   ar
    38    34    35   ar
    39    35    36   ar
    40    36    37    1
    41    36    31   ar
    42     6     1   ar
    43    12     7    1
    44    20    15   ar
    45    27    21    1
    46    40    41    1
    47    13    14    1
@<TRIPOS>MOLECULE
*****
 43 47 0 0 0
SMALL
GASTEIGER

@<TRIPOS>ATOM
      1 C          63.7920   85.6029   13.6121 C.ar    1  UNL1        0.2443
      2 N          64.0460   87.0297   13.9995 N.ar    1  UNL1       -0.1953
      3 C          63.8428   87.4689   15.4193 C.ar    1  UNL1        0.1354
      4 C          63.3855   86.4814   16.4517 C.ar    1  UNL1        0.0359
      5 C          63.1315   85.0547   16.0643 C.ar    1  UNL1        0.0221
      6 C          63.3347   84.6155   14.6445 C.ar    1  UNL1        0.1023
      7 N          63.0807   83.1888   14.2571 N.pl3   1  UNL1       -0.3039
      8 C          61.7297   82.5787   14.4861 C.3     1  UNL1        0.0909
      9 C          61.4757   81.1520   14.0987 C.3     1  UNL1        0.0215
     10 C          62.5727   80.3355   13.4824 C.3     1  UNL1        0.0035
     11 C          63.9237   80.9456   13.2534 C.3     1  UNL1        0.0215
     12 C          64.1777   82.3723   13.6408 C.3     1  UNL1        0.0909
     13 N          64.0968   88.8955   15.8067 N.pl3   1  UNL1       -0.2955
     14 H          63.9219   89.1940   16.7284 H       1  UNL1        0.1537
     15 C          64.6174   89.8675   14.7897 C.ar    1  UNL1        0.0839
     16 C          66.0025   90.4266   14.9269 C.ar    1  UNL1        0.0190
     17 C          66.5231   91.3986   13.9098 C.ar    1  UNL1        0.0160
     18 C          65.6585   91.8115   12.7557 C.ar    1  UNL1        0.0510
     19 C          64.2734   91.2523   12.6185 C.ar    1  UNL1        0.0527
     20 C          63.7529   90.2803   13.6355 C.ar    1  UNL1        0.1532
     21 N          66.1791   92.7835   11.7386 N.pl3   1  UNL1       -0.3046
     22 C          65.9921   94.2573   11.9454 C.3     1  UNL1        0.1081
     23 C          66.5126   95.2293   10.9284 C.3     1  UNL1        0.0938
     24 N          67.2201   94.7274    9.7047 N.3     1  UNL1       -0.2686
     25 C          67.7407   95.6995    8.6877 C.3     1  UNL1        0.0897
     26 C          67.4071   93.2536    9.4979 C.3     1  UNL1        0.0938
     27 C          66.8866   92.2816   10.5149 C.3     1  UNL1        0.1081
     28 O          62.3678   89.7212   13.4983 O.3     1  UNL1       -0.4701
     29 C          61.3680   90.4031   12.6120 C.3     1  UNL1        0.2525
     30 O          63.9952   85.1637   12.1923 O.3     1  UNL1       -0.4350
     31 C          61.0367   87.0611   10.3491 C.ar    1  UNL1        0.0496
     32 C          62.0224   86.6607   11.4064 C.ar    1  UNL1        0.0519
     33 C          63.0094   85.5642   11.1350 C.ar    1  UNL1        0.1485
     34 C          63.0106   84.8682    9.8063 C.ar    1  UNL1        0.0373
     35 C          62.0248   85.2686    8.7490 C.ar    1  UNL1        0.0001
     36 C          61.0378   86.3651    9.0204 C.ar    1  UNL1       -0.0082
     37 C          60.0520   86.7655    7.9631 C.3     1  UNL1        0.0323
     38 C          60.3218   89.5494   10.1321 C.2     1  UNL1        0.2496
     39 O          61.5809   89.8449    9.3721 O.2     1  UNL1       -0.2698
     40 N          60.0497   88.1576   10.6206 N.am    1  UNL1       -0.2805
     41 H          59.2234   87.9637   11.1194 H       1  UNL1        0.1552
     42 C          58.4101   90.5482   11.5806 C.2     1  UNL1        0.0048
     43 C          59.3349   90.6459   10.4035 C.2     1  UNL1        0.0580
@<TRIPOS>BOND
     1    42    43    2
     2    43    38    1
     3    38    39    2
     4    38    40   am
     5    40    31    1
     6    31    32   ar
     7    32    33   ar
     8    33    30    1
     9    30     1    1
    10     1     2   ar
    11     2     3   ar
    12     3    13    1
    13    13    15    1
    14    15    16   ar
    15    16    17   ar
    16    17    18   ar
    17    18    21    1
    18    21    22    1
    19    22    23    1
    20    23    24    1
    21    24    25    1
    22    24    26    1
    23    26    27    1
    24    18    19   ar
    25    19    20   ar
    26    20    28    1
    27    28    29    1
    28     3     4   ar
    29     4     5   ar
    30     5     6   ar
    31     6     7    1
    32     7     8    1
    33     8     9    1
    34     9    10    1
    35    10    11    1
    36    11    12    1
    37    33    34   ar
    38    34    35   ar
    39    35    36   ar
    40    36    37    1
    41    36    31   ar
    42     6     1   ar
    43    12     7    1
    44    20    15   ar
    45    27    21    1
    46    40    41    1
    47    13    14    1
