@<TRIPOS>MOLECULE
*****
 31 35 0 0 0
SMALL
GASTEIGER

@<TRIPOS>ATOM
      1 N          64.0512   95.7642   -4.4333 N.3     1  UNL1       -0.1471
      2 C          62.7036   95.1107   -4.5161 C.3     1  UNL1        0.1237
      3 C          61.9030   94.4756   -3.4181 C.ar    1  UNL1        0.0126
      4 C          60.6003   93.9370   -3.9308 C.ar    1  UNL1        0.0100
      5 C          59.6470   93.2599   -2.9913 C.ar    1  UNL1        0.0575
      6 CL         58.3442   92.7213   -3.5040 Cl      1  UNL1       -0.0823
      7 C          59.9963   93.1214   -1.5392 C.ar    1  UNL1        0.0129
      8 C          61.2990   93.6600   -1.0265 C.ar    1  UNL1        0.0182
      9 C          62.2523   94.3370   -1.9659 C.ar    1  UNL1        0.0637
     10 N          63.4885   94.7995   -1.2532 N.ar    1  UNL1       -0.2799
     11 C          64.6807   95.5146   -1.8165 C.ar    1  UNL1        0.1649
     12 N          65.6486   95.7557   -0.6963 N.ar    1  UNL1       -0.1318
     13 N          65.0547   95.1896    0.5593 N.ar    1  UNL1       -0.1333
     14 C          63.7197   94.5986    0.2152 C.ar    1  UNL1        0.1465
     15 C          64.9311   95.9439   -3.2318 C.3     1  UNL1        0.1616
     16 C          62.7807   93.9250    1.1715 C.3     1  UNL1        0.0625
     17 C          63.1357   92.5901    1.7563 C.3     1  UNL1        0.0291
     18 C          62.1967   91.9165    2.7126 C.3     1  UNL1        0.0926
     19 N          60.9027   92.5778    3.0842 N.pl3   1  UNL1       -0.2932
     20 C          60.5477   93.9128    2.4995 C.3     1  UNL1        0.0926
     21 C          61.4867   94.5864    1.5432 C.3     1  UNL1        0.0291
     22 C          59.9637   91.9043    4.0406 C.ar    1  UNL1        0.1317
     23 C          60.4771   90.8560    4.9826 C.ar    1  UNL1        0.0343
     24 C          59.5380   90.1824    5.9390 C.ar    1  UNL1        0.0045
     25 C          58.0857   90.5572    5.9532 C.ar    1  UNL1        0.0208
     26 C          57.5723   91.6055    5.0112 C.ar    1  UNL1        0.1003
     27 N          58.5114   92.2790    4.0548 N.ar    1  UNL1       -0.2292
     28 C          65.1292   96.8560   -7.0112 C.3     1  UNL1        0.1960
     29 S          64.5902   96.3101   -5.7222 S.O2    1  UNL1        0.0463
     30 O          63.3473   95.8614   -6.4320 O.2     1  UNL1       -0.1572
     31 O          65.8332   96.7587   -5.0125 O.2     1  UNL1       -0.1572
@<TRIPOS>BOND
     1    28    29    1
     2    29    30    2
     3    29    31    2
     4    29     1    1
     5     1     2    1
     6     2     3    1
     7     3     4   ar
     8     4     5   ar
     9     5     6    1
    10     5     7   ar
    11     7     8   ar
    12     8     9   ar
    13     9    10    1
    14    10    11   ar
    15    11    12   ar
    16    12    13   ar
    17    13    14   ar
    18    14    16    1
    19    16    17    1
    20    17    18    1
    21    18    19    1
    22    19    22    1
    23    22    23   ar
    24    23    24   ar
    25    24    25   ar
    26    25    26   ar
    27    26    27   ar
    28    19    20    1
    29    20    21    1
    30    11    15    1
    31    15     1    1
    32     9     3   ar
    33    14    10   ar
    34    21    16    1
    35    27    22   ar
@<TRIPOS>MOLECULE
*****
 31 35 0 0 0
SMALL
GASTEIGER

@<TRIPOS>ATOM
      1 N          63.0878   93.9888   -0.2865 N.3     1  UNL1       -0.1471
      2 C          63.1033   94.6814   -1.6168 C.3     1  UNL1        0.1237
      3 C          61.9452   95.0243   -2.5064 C.ar    1  UNL1        0.0126
      4 C          62.4004   95.7198   -3.7550 C.ar    1  UNL1        0.0100
      5 C          61.3958   96.1500   -4.7825 C.ar    1  UNL1        0.0575
      6 CL         61.8510   96.8456   -6.0312 Cl      1  UNL1       -0.0823
      7 C          59.9361   95.8849   -4.5613 C.ar    1  UNL1        0.0129
      8 C          59.4809   95.1894   -3.3127 C.ar    1  UNL1        0.0182
      9 C          60.4855   94.7591   -2.2852 C.ar    1  UNL1        0.0637
     10 N          59.8234   94.0856   -1.1199 N.ar    1  UNL1       -0.2799
     11 C          60.4574   93.5109    0.1121 C.ar    1  UNL1        0.1649
     12 N          59.3671   92.9499    0.9760 N.ar    1  UNL1       -0.1318
     13 N          58.0591   93.1779    0.2779 N.ar    1  UNL1       -0.1333
     14 C          58.3411   93.8798   -1.0174 C.ar    1  UNL1        0.1465
     15 C          61.9102   93.4678    0.4830 C.3     1  UNL1        0.1616
     16 C          57.3202   94.3017   -2.0320 C.3     1  UNL1        0.0625
     17 C          56.6025   95.6095   -1.8749 C.3     1  UNL1        0.0291
     18 C          55.5816   96.0314   -2.8895 C.3     1  UNL1        0.0926
     19 N          55.2782   95.1456   -4.0613 N.pl3   1  UNL1       -0.2932
     20 C          55.9958   93.8378   -4.2186 C.3     1  UNL1        0.0926
     21 C          57.0168   93.4158   -3.2039 C.3     1  UNL1        0.0291
     22 C          54.2572   95.5676   -5.0761 C.ar    1  UNL1        0.1317
     23 C          54.5997   95.5508   -6.5363 C.ar    1  UNL1        0.0343
     24 C          53.5787   95.9728   -7.5510 C.ar    1  UNL1        0.0045
     25 C          52.2153   96.4114   -7.1054 C.ar    1  UNL1        0.0208
     26 C          51.8728   96.4282   -5.6451 C.ar    1  UNL1        0.1003
     27 N          52.8938   96.0063   -4.6304 N.ar    1  UNL1       -0.2292
     28 C          65.7658   93.5929    1.0063 C.3     1  UNL1        0.1960
     29 S          64.4268   93.7908    0.3599 S.O2    1  UNL1        0.0463
     30 O          63.8369   92.7482    1.2626 O.2     1  UNL1       -0.1572
     31 O          65.0167   94.8336   -0.5427 O.2     1  UNL1       -0.1572
@<TRIPOS>BOND
     1    28    29    1
     2    29    30    2
     3    29    31    2
     4    29     1    1
     5     1     2    1
     6     2     3    1
     7     3     4   ar
     8     4     5   ar
     9     5     6    1
    10     5     7   ar
    11     7     8   ar
    12     8     9   ar
    13     9    10    1
    14    10    11   ar
    15    11    12   ar
    16    12    13   ar
    17    13    14   ar
    18    14    16    1
    19    16    17    1
    20    17    18    1
    21    18    19    1
    22    19    22    1
    23    22    23   ar
    24    23    24   ar
    25    24    25   ar
    26    25    26   ar
    27    26    27   ar
    28    19    20    1
    29    20    21    1
    30    11    15    1
    31    15     1    1
    32     9     3   ar
    33    14    10   ar
    34    21    16    1
    35    27    22   ar
