@<TRIPOS>MOLECULE
*****
 39 42 0 0 0
SMALL
GASTEIGER

@<TRIPOS>ATOM
      1 N          63.2719   90.2828   12.0427 N.am    1  UNL1       -0.2438
      2 C          63.9980   90.1898   13.3519 C.3     1  UNL1        0.1009
      3 C          65.2001   91.0503   13.6057 C.3     1  UNL1        0.0661
      4 C          65.6762   92.0039   12.5503 C.3     1  UNL1        0.1578
      5 O          64.9501   92.0970   11.2410 O.3     1  UNL1       -0.4375
      6 C          63.7479   91.2365   10.9872 C.2     1  UNL1        0.4051
      7 O          63.0219   91.3296    9.6780 O.2     1  UNL1       -0.2262
      8 C          66.6899   92.2746   13.6223 C.ar    1  UNL1        0.0139
      9 C          68.1379   91.9670   13.3802 C.ar    1  UNL1        0.0014
     10 C          69.1516   92.2377   14.4522 C.ar    1  UNL1        0.0294
     11 C          68.7172   92.8162   15.7662 C.ar    1  UNL1        0.1401
     12 F          69.7309   93.0869   16.8382 F       1  UNL1       -0.2042
     13 C          67.2692   93.1238   16.0083 C.ar    1  UNL1        0.0294
     14 C          66.2555   92.8531   14.9363 C.ar    1  UNL1        0.0014
     15 C          60.7303   90.0553   11.5546 C.3     1  UNL1        0.0265
     16 C          62.0698   89.4223   11.7889 C.3     1  UNL1        0.1011
     17 C          62.2072   87.9287   11.7695 C.ar    1  UNL1       -0.0042
     18 C          63.1637   87.2513   12.7055 C.ar    1  UNL1       -0.0027
     19 C          63.3011   85.7578   12.6861 C.ar    1  UNL1       -0.0002
     20 C          62.4820   84.9416   11.7306 C.ar    1  UNL1        0.0021
     21 C          61.5255   85.6190   10.7945 C.ar    1  UNL1       -0.0002
     22 C          61.3881   87.1126   10.8140 C.ar    1  UNL1       -0.0027
     23 C          62.6195   83.4480   11.7111 C.ar    1  UNL1        0.0276
     24 C          62.1523   82.6366   12.8830 C.ar    1  UNL1        0.0045
     25 C          62.2898   81.1429   12.8635 C.ar    1  UNL1        0.0298
     26 C          62.8944   80.4609   11.6722 C.ar    1  UNL1        0.1424
     27 F          63.0318   78.9673   11.6527 F       1  UNL1       -0.2041
     28 C          63.3615   81.2724   10.5003 C.ar    1  UNL1        0.0592
     29 C          63.2241   82.7660   10.5198 C.ar    1  UNL1        0.1423
     30 F          63.6913   83.5775    9.3479 F       1  UNL1       -0.2041
     31 C          66.5043   93.0516   11.8671 C.3     1  UNL1        0.0460
     32 C          66.5533   93.1098   10.3691 C.3     1  UNL1        0.0228
     33 C          67.8207   93.5127    9.6752 C.3     1  UNL1        0.0912
     34 N          68.1065   94.9626    9.4179 N.3     1  UNL1       -0.1833
     35 H          68.7401   95.0006    8.6195 H       1  UNL1        0.1484
     36 S          66.9800   95.9080    9.1222 S.O2    1  UNL1        0.0426
     37 C          65.8536   96.8534    8.8266 C.3     1  UNL1        0.1957
     38 O          67.0952   96.4777   10.5051 O.2     1  UNL1       -0.1575
     39 O          66.8648   95.3382    7.7394 O.2     1  UNL1       -0.1575
@<TRIPOS>BOND
     1    16    15    1
     2    16    17    1
     3    17    18   ar
     4    18    19   ar
     5    19    20   ar
     6    20    23    1
     7    23    24   ar
     8    24    25   ar
     9    25    26   ar
    10    26    27    1
    11    26    28   ar
    12    28    29   ar
    13    29    30    1
    14    20    21   ar
    15    21    22   ar
    16    16     1    1
    17     1     2    1
    18     2     3    1
    19     3     4    1
    20     4    31    1
    21    31    32    1
    22    32    33    1
    23    33    34    1
    24    34    36    1
    25    36    37    1
    26    36    38    2
    27    36    39    2
    28     4     8    1
    29     8     9   ar
    30     9    10   ar
    31    10    11   ar
    32    11    12    1
    33    11    13   ar
    34    13    14   ar
    35     4     5    1
    36     5     6    1
    37     6     7    2
    38    22    17   ar
    39     6     1   am
    40    29    23   ar
    41    14     8   ar
    42    34    35    1
@<TRIPOS>MOLECULE
*****
 39 42 0 0 0
SMALL
GASTEIGER

@<TRIPOS>ATOM
      1 N          63.3092   90.5231   11.8960 N.am    1  UNL1       -0.2438
      2 C          64.0515   90.4880   13.1990 C.3     1  UNL1        0.1009
      3 C          65.2544   91.3610   13.4006 C.3     1  UNL1        0.0661
      4 C          65.7151   92.2692   12.2993 C.3     1  UNL1        0.1578
      5 O          64.9729   92.3043   10.9963 O.3     1  UNL1       -0.4375
      6 C          63.7699   91.4313   10.7946 C.2     1  UNL1        0.4051
      7 O          63.0276   91.4664    9.4916 O.2     1  UNL1       -0.2262
      8 C          66.7412   92.5879   13.3461 C.ar    1  UNL1        0.0139
      9 C          66.5513   93.7727   14.2462 C.ar    1  UNL1        0.0014
     10 C          67.5773   94.0914   15.2930 C.ar    1  UNL1        0.0294
     11 C          68.7932   93.2253   15.4395 C.ar    1  UNL1        0.1401
     12 F          69.8193   93.5440   16.4863 F       1  UNL1       -0.2042
     13 C          68.9831   92.0405   14.5394 C.ar    1  UNL1        0.0294
     14 C          67.9571   91.7218   13.4926 C.ar    1  UNL1        0.0014
     15 C          60.7739   90.2678   11.3890 C.3     1  UNL1        0.0265
     16 C          62.1062   89.6500   11.6944 C.3     1  UNL1        0.1011
     17 C          62.2356   88.1592   11.7981 C.ar    1  UNL1       -0.0042
     18 C          61.3759   87.2708   10.9486 C.ar    1  UNL1       -0.0027
     19 C          61.5054   85.7801   11.0524 C.ar    1  UNL1       -0.0002
     20 C          62.4944   85.1777   12.0057 C.ar    1  UNL1        0.0021
     21 C          63.3541   86.0660   12.8552 C.ar    1  UNL1       -0.0002
     22 C          63.2247   87.5568   12.7514 C.ar    1  UNL1       -0.0027
     23 C          62.6238   83.6868   12.1095 C.ar    1  UNL1        0.0276
     24 C          63.0170   82.8825   10.9059 C.ar    1  UNL1        0.0045
     25 C          63.1464   81.3917   11.0097 C.ar    1  UNL1        0.0298
     26 C          62.8826   80.7052   12.3170 C.ar    1  UNL1        0.1424
     27 F          63.0120   79.2144   12.4208 F       1  UNL1       -0.2041
     28 C          62.4894   81.5095   13.5206 C.ar    1  UNL1        0.0592
     29 C          62.3600   83.0003   13.4168 C.ar    1  UNL1        0.1423
     30 F          61.9668   83.8046   14.6203 F       1  UNL1       -0.2041
     31 C          66.5322   93.2881   11.5615 C.3     1  UNL1        0.0460
     32 C          66.8887   93.0639   10.1219 C.3     1  UNL1        0.0228
     33 C          68.0986   93.7297    9.5363 C.3     1  UNL1        0.0912
     34 N          68.1631   95.2258    9.4497 N.3     1  UNL1       -0.1833
     35 H          68.8206   95.4494    8.7026 H       1  UNL1        0.1484
     36 S          66.9167   96.0159    9.1805 S.O2    1  UNL1        0.0426
     37 C          65.6704   96.8059    8.9114 C.3     1  UNL1        0.1957
     38 O          66.9744   96.5800   10.5692 O.2     1  UNL1       -0.1575
     39 O          66.8590   95.4517    7.7918 O.2     1  UNL1       -0.1575
@<TRIPOS>BOND
     1    16    15    1
     2    16    17    1
     3    17    18   ar
     4    18    19   ar
     5    19    20   ar
     6    20    23    1
     7    23    24   ar
     8    24    25   ar
     9    25    26   ar
    10    26    27    1
    11    26    28   ar
    12    28    29   ar
    13    29    30    1
    14    20    21   ar
    15    21    22   ar
    16    16     1    1
    17     1     2    1
    18     2     3    1
    19     3     4    1
    20     4    31    1
    21    31    32    1
    22    32    33    1
    23    33    34    1
    24    34    36    1
    25    36    37    1
    26    36    38    2
    27    36    39    2
    28     4     8    1
    29     8     9   ar
    30     9    10   ar
    31    10    11   ar
    32    11    12    1
    33    11    13   ar
    34    13    14   ar
    35     4     5    1
    36     5     6    1
    37     6     7    2
    38    22    17   ar
    39     6     1   am
    40    29    23   ar
    41    14     8   ar
    42    34    35    1
@<TRIPOS>MOLECULE
*****
 39 42 0 0 0
SMALL
GASTEIGER

@<TRIPOS>ATOM
      1 N          62.7749   90.6817   11.5588 N.am    1  UNL1       -0.2438
      2 C          63.2774   91.3415   10.3089 C.3     1  UNL1        0.1009
      3 C          64.4350   92.2930   10.3766 C.3     1  UNL1        0.0661
      4 C          65.0901   92.5847   11.6940 C.3     1  UNL1        0.1578
      5 O          64.5877   91.9249   12.9439 O.3     1  UNL1       -0.4375
      6 C          63.4300   90.9733   12.8763 C.2     1  UNL1        0.4051
      7 O          62.9276   90.3135   14.1261 O.2     1  UNL1       -0.2262
      8 C          65.9203   93.4502   10.7930 C.ar    1  UNL1        0.0139
      9 C          67.0794   92.8603   10.0457 C.ar    1  UNL1        0.0014
     10 C          67.9095   93.7259    9.1447 C.ar    1  UNL1        0.0294
     11 C          67.5805   95.1813    8.9911 C.ar    1  UNL1        0.1401
     12 F          68.4107   96.0468    8.0901 F       1  UNL1       -0.2042
     13 C          66.4214   95.7712    9.7384 C.ar    1  UNL1        0.0294
     14 C          65.5913   94.9056   10.6394 C.ar    1  UNL1        0.0014
     15 C          60.2170   90.2585   11.3922 C.3     1  UNL1        0.0265
     16 C          61.6173   89.7302   11.4911 C.3     1  UNL1        0.1011
     17 C          61.8601   88.2502   11.5224 C.ar    1  UNL1       -0.0042
     18 C          62.9383   87.6855   12.3990 C.ar    1  UNL1       -0.0027
     19 C          63.1810   86.2056   12.4303 C.ar    1  UNL1       -0.0002
     20 C          62.3456   85.2905   11.5849 C.ar    1  UNL1        0.0021
     21 C          61.2674   85.8553   10.7083 C.ar    1  UNL1       -0.0002
     22 C          61.0247   87.3351   10.6770 C.ar    1  UNL1       -0.0027
     23 C          62.5884   83.8106   11.6162 C.ar    1  UNL1        0.0276
     24 C          62.1579   83.0049   12.8059 C.ar    1  UNL1        0.0045
     25 C          62.4007   81.5249   12.8372 C.ar    1  UNL1        0.0298
     26 C          63.0740   80.8508   11.6786 C.ar    1  UNL1        0.1424
     27 F          63.3168   79.3709   11.7099 F       1  UNL1       -0.2041
     28 C          63.5045   81.6565   10.4889 C.ar    1  UNL1        0.0592
     29 C          63.2617   83.1364   10.4576 C.ar    1  UNL1        0.1423
     30 F          63.6922   83.9421    9.2679 F       1  UNL1       -0.2041
     31 C          66.0336   93.1770   12.6986 C.3     1  UNL1        0.0460
     32 C          66.0754   92.6372   14.0974 C.3     1  UNL1        0.0228
     33 C          66.8850   91.4124   14.4049 C.3     1  UNL1        0.0912
     34 N          68.1555   91.5317   15.1933 N.3     1  UNL1       -0.1833
     35 H          68.8931   91.1103   14.6287 H       1  UNL1        0.1484
     36 S          68.6519   92.8827   15.6158 S.O2    1  UNL1        0.0426
     37 C          69.1483   94.2336   16.0383 C.3     1  UNL1        0.1957
     38 O          69.6144   92.8889   14.4654 O.2     1  UNL1       -0.1575
     39 O          67.6893   92.8766   16.7663 O.2     1  UNL1       -0.1575
@<TRIPOS>BOND
     1    16    15    1
     2    16    17    1
     3    17    18   ar
     4    18    19   ar
     5    19    20   ar
     6    20    23    1
     7    23    24   ar
     8    24    25   ar
     9    25    26   ar
    10    26    27    1
    11    26    28   ar
    12    28    29   ar
    13    29    30    1
    14    20    21   ar
    15    21    22   ar
    16    16     1    1
    17     1     2    1
    18     2     3    1
    19     3     4    1
    20     4    31    1
    21    31    32    1
    22    32    33    1
    23    33    34    1
    24    34    36    1
    25    36    37    1
    26    36    38    2
    27    36    39    2
    28     4     8    1
    29     8     9   ar
    30     9    10   ar
    31    10    11   ar
    32    11    12    1
    33    11    13   ar
    34    13    14   ar
    35     4     5    1
    36     5     6    1
    37     6     7    2
    38    22    17   ar
    39     6     1   am
    40    29    23   ar
    41    14     8   ar
    42    34    35    1
@<TRIPOS>MOLECULE
*****
 39 42 0 0 0
SMALL
GASTEIGER

@<TRIPOS>ATOM
      1 N          62.8108   90.7185   11.1633 N.am    1  UNL1       -0.2438
      2 C          63.3520   91.4554    9.9742 C.3     1  UNL1        0.1009
      3 C          64.4684   92.4420   10.1476 C.3     1  UNL1        0.0661
      4 C          65.0437   92.6918   11.5101 C.3     1  UNL1        0.1578
      5 O          64.5025   91.9550   12.6994 O.3     1  UNL1       -0.4375
      6 C          63.3861   90.9683   12.5260 C.2     1  UNL1        0.4051
      7 O          62.8449   90.2314   13.7151 O.2     1  UNL1       -0.2262
      8 C          65.8863   93.6285   10.6959 C.ar    1  UNL1        0.0139
      9 C          67.0589   93.1023    9.9225 C.ar    1  UNL1        0.0014
     10 C          67.9015   94.0390    9.1084 C.ar    1  UNL1        0.0294
     11 C          67.5714   95.5016    9.0677 C.ar    1  UNL1        0.1401
     12 F          68.4140   96.4382    8.2535 F       1  UNL1       -0.2042
     13 C          66.3988   96.0277    9.8411 C.ar    1  UNL1        0.0294
     14 C          65.5562   95.0911   10.6553 C.ar    1  UNL1        0.0014
     15 C          60.3496   90.1967   10.5150 C.3     1  UNL1        0.0265
     16 C          61.6944   89.7318   10.9899 C.3     1  UNL1        0.1011
     17 C          61.9227   88.2803   11.2914 C.ar    1  UNL1       -0.0042
     18 C          61.0634   87.2355   10.6435 C.ar    1  UNL1       -0.0027
     19 C          61.2917   85.7840   10.9451 C.ar    1  UNL1       -0.0002
     20 C          62.3795   85.3773   11.8946 C.ar    1  UNL1        0.0021
     21 C          63.2388   86.4221   12.5425 C.ar    1  UNL1       -0.0002
     22 C          63.0104   87.8736   12.2409 C.ar    1  UNL1       -0.0027
     23 C          62.6078   83.9257   12.1961 C.ar    1  UNL1        0.0276
     24 C          62.9800   82.9800   11.0929 C.ar    1  UNL1        0.0045
     25 C          63.2083   81.5285   11.3944 C.ar    1  UNL1        0.0298
     26 C          63.0645   81.0226   12.7992 C.ar    1  UNL1        0.1424
     27 F          63.2928   79.5712   13.1008 F       1  UNL1       -0.2041
     28 C          62.6923   81.9684   13.9025 C.ar    1  UNL1        0.0592
     29 C          62.4640   83.4199   13.6009 C.ar    1  UNL1        0.1423
     30 F          62.0918   84.3657   14.7042 F       1  UNL1       -0.2041
     31 C          65.9116   93.2669   12.5900 C.3     1  UNL1        0.0460
     32 C          66.7106   92.3564   13.4745 C.3     1  UNL1        0.0228
     33 C          66.9598   92.7300   14.9058 C.3     1  UNL1        0.0912
     34 N          65.8082   93.0791   15.8012 N.3     1  UNL1       -0.1833
     35 H          65.2682   93.7980   15.3197 H       1  UNL1        0.1484
     36 S          64.8364   92.0166   16.2219 S.O2    1  UNL1        0.0426
     37 C          63.8647   90.9542   16.6426 C.3     1  UNL1        0.1957
     38 O          64.1077   93.0181   17.0681 O.2     1  UNL1       -0.1575
     39 O          65.5651   91.0151   15.3757 O.2     1  UNL1       -0.1575
@<TRIPOS>BOND
     1    16    15    1
     2    16    17    1
     3    17    18   ar
     4    18    19   ar
     5    19    20   ar
     6    20    23    1
     7    23    24   ar
     8    24    25   ar
     9    25    26   ar
    10    26    27    1
    11    26    28   ar
    12    28    29   ar
    13    29    30    1
    14    20    21   ar
    15    21    22   ar
    16    16     1    1
    17     1     2    1
    18     2     3    1
    19     3     4    1
    20     4    31    1
    21    31    32    1
    22    32    33    1
    23    33    34    1
    24    34    36    1
    25    36    37    1
    26    36    38    2
    27    36    39    2
    28     4     8    1
    29     8     9   ar
    30     9    10   ar
    31    10    11   ar
    32    11    12    1
    33    11    13   ar
    34    13    14   ar
    35     4     5    1
    36     5     6    1
    37     6     7    2
    38    22    17   ar
    39     6     1   am
    40    29    23   ar
    41    14     8   ar
    42    34    35    1
@<TRIPOS>MOLECULE
*****
 39 42 0 0 0
SMALL
GASTEIGER

@<TRIPOS>ATOM
      1 N          62.0311   88.0855   11.1304 N.am    1  UNL1       -0.2438
      2 C          61.5526   88.1230    9.7093 C.3     1  UNL1        0.1009
      3 C          61.7472   86.9303    8.8207 C.3     1  UNL1        0.0661
      4 C          62.4204   85.7002    9.3532 C.3     1  UNL1        0.1578
      5 O          62.8990   85.6627   10.7744 O.3     1  UNL1       -0.4375
      6 C          62.7043   86.8554   11.6630 C.2     1  UNL1        0.4051
      7 O          63.1829   86.8179   13.0841 O.2     1  UNL1       -0.2262
      8 C          62.1421   85.2569    7.9474 C.ar    1  UNL1        0.0139
      9 C          60.7338   85.2396    7.4315 C.ar    1  UNL1        0.0014
     10 C          60.4554   84.7964    6.0257 C.ar    1  UNL1        0.0294
     11 C          61.5855   84.3705    5.1360 C.ar    1  UNL1        0.1401
     12 F          61.3072   83.9273    3.7302 F       1  UNL1       -0.2042
     13 C          62.9939   84.3878    5.6520 C.ar    1  UNL1        0.0294
     14 C          63.2722   84.8311    7.0578 C.ar    1  UNL1        0.0014
     15 C          60.4546   89.7969   12.2862 C.3     1  UNL1        0.0265
     16 C          61.8365   89.2782   12.0190 C.3     1  UNL1        0.1011
     17 C          63.0238   89.9523   12.6404 C.ar    1  UNL1       -0.0042
     18 C          63.7317   91.0518   11.9057 C.ar    1  UNL1       -0.0027
     19 C          64.9189   91.7257   12.5271 C.ar    1  UNL1       -0.0002
     20 C          65.3982   91.3002   13.8833 C.ar    1  UNL1        0.0021
     21 C          64.6903   90.2007   14.6180 C.ar    1  UNL1       -0.0002
     22 C          63.5031   89.5267   13.9966 C.ar    1  UNL1       -0.0027
     23 C          66.5855   91.9742   14.5047 C.ar    1  UNL1        0.0276
     24 C          67.8990   91.9970   13.7808 C.ar    1  UNL1        0.0045
     25 C          69.0863   92.6711   14.4022 C.ar    1  UNL1        0.0298
     26 C          68.9600   93.3223   15.7475 C.ar    1  UNL1        0.1424
     27 F          70.1472   93.9963   16.3690 F       1  UNL1       -0.2041
     28 C          67.6464   93.2995   16.4715 C.ar    1  UNL1        0.0592
     29 C          66.4592   92.6254   15.8501 C.ar    1  UNL1        0.1423
     30 F          65.1456   92.6026   16.5740 F       1  UNL1       -0.2041
     31 C          62.9970   84.3161    9.3975 C.3     1  UNL1        0.0460
     32 C          63.1659   83.6157   10.7131 C.3     1  UNL1        0.0228
     33 C          64.2825   82.6319   10.9011 C.3     1  UNL1        0.0912
     34 N          64.9929   82.5467   12.2195 N.3     1  UNL1       -0.1833
     35 H          65.7376   83.2433   12.1983 H       1  UNL1        0.1484
     36 S          64.2343   82.7624   13.4955 S.O2    1  UNL1        0.0426
     37 C          63.4757   82.9780   14.7714 C.3     1  UNL1        0.1957
     38 O          63.5769   81.4241   13.3309 O.2     1  UNL1       -0.1575
     39 O          64.8917   84.1006   13.6600 O.2     1  UNL1       -0.1575
@<TRIPOS>BOND
     1    16    15    1
     2    16    17    1
     3    17    18   ar
     4    18    19   ar
     5    19    20   ar
     6    20    23    1
     7    23    24   ar
     8    24    25   ar
     9    25    26   ar
    10    26    27    1
    11    26    28   ar
    12    28    29   ar
    13    29    30    1
    14    20    21   ar
    15    21    22   ar
    16    16     1    1
    17     1     2    1
    18     2     3    1
    19     3     4    1
    20     4    31    1
    21    31    32    1
    22    32    33    1
    23    33    34    1
    24    34    36    1
    25    36    37    1
    26    36    38    2
    27    36    39    2
    28     4     8    1
    29     8     9   ar
    30     9    10   ar
    31    10    11   ar
    32    11    12    1
    33    11    13   ar
    34    13    14   ar
    35     4     5    1
    36     5     6    1
    37     6     7    2
    38    22    17   ar
    39     6     1   am
    40    29    23   ar
    41    14     8   ar
    42    34    35    1
