@<TRIPOS>MOLECULE
*****
 17 20 0 0 0
SMALL
GASTEIGER

@<TRIPOS>ATOM
      1 C          63.9370   89.0811   13.5910 C.ar    1  UNL1       -0.0005
      2 C          64.3885   88.0162   14.5460 C.ar    1  UNL1       -0.0017
      3 C          64.0895   86.5748   14.2578 C.ar    1  UNL1        0.0067
      4 C          63.3389   86.1984   13.0149 C.ar    1  UNL1        0.0411
      5 C          62.8874   87.2634   12.0599 C.ar    1  UNL1       -0.0081
      6 C          63.1864   88.7048   12.3481 C.ar    1  UNL1       -0.0030
      7 C          62.1716   86.5944   10.9242 C.3     1  UNL1        0.0383
      8 C          61.4266   86.1428    9.7031 C.3     1  UNL1        0.0058
      9 C          61.2994   87.5682    9.2535 C.3     1  UNL1        0.0008
     10 C          62.0443   88.0198   10.4747 C.3     1  UNL1        0.0058
     11 C          62.1807   85.1160   11.1771 C.3     1  UNL1        0.0948
     12 N          62.9022   84.8712   12.4693 N.pl3   1  UNL1       -0.3062
     13 C          63.1336   83.5242   13.0872 C.3     1  UNL1        0.1078
     14 C          63.8404   83.1916   14.3678 C.3     1  UNL1        0.0905
     15 N          64.4902   84.1240   15.3468 N.3     1  UNL1       -0.2923
     16 C          64.5938   85.6192   15.2868 C.3     1  UNL1        0.0969
     17 H          65.4568   83.8030   15.4025 H       1  UNL1        0.1236
@<TRIPOS>BOND
     1     1     2   ar
     2     2     3   ar
     3     3     4   ar
     4     4     5   ar
     5     5     6   ar
     6     5     7    1
     7     7     8    1
     8     8     9    1
     9     9    10    1
    10     7    11    1
    11    11    12    1
    12    12    13    1
    13    13    14    1
    14    14    15    1
    15    15    16    1
    16     6     1   ar
    17    10     7    1
    18    16     3    1
    19    12     4    1
    20    15    17    1
@<TRIPOS>MOLECULE
*****
 17 20 0 0 0
SMALL
GASTEIGER

@<TRIPOS>ATOM
      1 C          62.4224   90.7934   10.9853 C.ar    1  UNL1       -0.0005
      2 C          63.1627   90.1170   12.1008 C.ar    1  UNL1       -0.0017
      3 C          63.0813   88.6277   12.2603 C.ar    1  UNL1        0.0067
      4 C          62.2596   87.8149   11.3042 C.ar    1  UNL1        0.0411
      5 C          61.5192   88.4912   10.1887 C.ar    1  UNL1       -0.0081
      6 C          61.6006   89.9805   10.0293 C.ar    1  UNL1       -0.0030
      7 C          60.7946   87.4362    9.4067 C.3     1  UNL1        0.0383
      8 C          59.9939   86.5590    8.4905 C.3     1  UNL1        0.0058
      9 C          59.5709   87.7651    7.7053 C.3     1  UNL1        0.0008
     10 C          60.3716   88.6423    8.6215 C.3     1  UNL1        0.0058
     11 C          61.0870   86.1077   10.0388 C.3     1  UNL1        0.0948
     12 N          61.9925   86.3417   11.2116 N.pl3   1  UNL1       -0.3062
     13 C          62.5246   85.2721   12.1185 C.3     1  UNL1        0.1078
     14 C          63.4292   85.4175   13.3062 C.3     1  UNL1        0.0905
     15 N          64.0252   86.6687   13.8802 N.3     1  UNL1       -0.2923
     16 C          63.8637   88.0833   13.4083 C.3     1  UNL1        0.0969
     17 H          65.0318   86.5055   13.8586 H       1  UNL1        0.1236
@<TRIPOS>BOND
     1     1     2   ar
     2     2     3   ar
     3     3     4   ar
     4     4     5   ar
     5     5     6   ar
     6     5     7    1
     7     7     8    1
     8     8     9    1
     9     9    10    1
    10     7    11    1
    11    11    12    1
    12    12    13    1
    13    13    14    1
    14    14    15    1
    15    15    16    1
    16     6     1   ar
    17    10     7    1
    18    16     3    1
    19    12     4    1
    20    15    17    1
@<TRIPOS>MOLECULE
*****
 17 20 0 0 0
SMALL
GASTEIGER

@<TRIPOS>ATOM
      1 C          64.3683   89.6374   14.8004 C.ar    1  UNL1       -0.0005
      2 C          65.2767   90.8292   14.8682 C.ar    1  UNL1       -0.0017
      3 C          65.3943   91.7503   13.6902 C.ar    1  UNL1        0.0067
      4 C          64.6037   91.4797   12.4446 C.ar    1  UNL1        0.0411
      5 C          63.6953   90.2880   12.3768 C.ar    1  UNL1       -0.0081
      6 C          63.5776   89.3669   13.5548 C.ar    1  UNL1       -0.0030
      7 C          63.0452   90.2770   11.0252 C.3     1  UNL1        0.0383
      8 C          62.2866   90.0706    9.7476 C.3     1  UNL1        0.0058
      9 C          61.6536   88.8382   10.3226 C.3     1  UNL1        0.0008
     10 C          62.4122   89.0446   11.6001 C.3     1  UNL1        0.0058
     11 C          63.5516   91.4619   10.2575 C.3     1  UNL1        0.0948
     12 N          64.5149   92.2052   11.1347 N.pl3   1  UNL1       -0.3062
     13 C          65.2490   93.4544   10.7465 C.3     1  UNL1        0.1078
     14 C          66.2237   94.2566   11.5568 C.3     1  UNL1        0.0905
     15 N          66.7050   94.0075   12.9556 N.3     1  UNL1       -0.2923
     16 C          66.3305   92.8950   13.8893 C.3     1  UNL1        0.0969
     17 H          66.4655   94.8590   13.4636 H       1  UNL1        0.1236
@<TRIPOS>BOND
     1     1     2   ar
     2     2     3   ar
     3     3     4   ar
     4     4     5   ar
     5     5     6   ar
     6     5     7    1
     7     7     8    1
     8     8     9    1
     9     9    10    1
    10     7    11    1
    11    11    12    1
    12    12    13    1
    13    13    14    1
    14    14    15    1
    15    15    16    1
    16     6     1   ar
    17    10     7    1
    18    16     3    1
    19    12     4    1
    20    15    17    1
@<TRIPOS>MOLECULE
*****
 17 20 0 0 0
SMALL
GASTEIGER

@<TRIPOS>ATOM
      1 C          65.8670   93.2911   10.4539 C.ar    1  UNL1       -0.0005
      2 C          66.4212   93.6736   11.7942 C.ar    1  UNL1       -0.0017
      3 C          65.9058   93.0089   13.0362 C.ar    1  UNL1        0.0067
      4 C          64.8363   91.9619   12.9379 C.ar    1  UNL1        0.0411
      5 C          64.2821   91.5794   11.5975 C.ar    1  UNL1       -0.0081
      6 C          64.7975   92.2440   10.3556 C.ar    1  UNL1       -0.0030
      7 C          63.2406   90.5214   11.8114 C.3     1  UNL1        0.0383
      8 C          62.1736   89.4672   11.7912 C.3     1  UNL1        0.0058
      9 C          62.0952   89.5751   10.2971 C.3     1  UNL1        0.0008
     10 C          63.1622   90.6293   10.3173 C.3     1  UNL1        0.0058
     11 C          63.1510   90.2499   13.2838 C.3     1  UNL1        0.0948
     12 N          64.1372   91.1402   13.9801 N.pl3   1  UNL1       -0.3062
     13 C          64.3659   91.1828   15.4619 C.3     1  UNL1        0.1078
     14 C          65.3255   92.0371   16.2361 C.3     1  UNL1        0.0905
     15 N          66.2936   93.0599   15.7195 N.3     1  UNL1       -0.2923
     16 C          66.5409   93.4809   14.3012 C.3     1  UNL1        0.0969
     17 H          67.2034   92.7427   16.0542 H       1  UNL1        0.1236
@<TRIPOS>BOND
     1     1     2   ar
     2     2     3   ar
     3     3     4   ar
     4     4     5   ar
     5     5     6   ar
     6     5     7    1
     7     7     8    1
     8     8     9    1
     9     9    10    1
    10     7    11    1
    11    11    12    1
    12    12    13    1
    13    13    14    1
    14    14    15    1
    15    15    16    1
    16     6     1   ar
    17    10     7    1
    18    16     3    1
    19    12     4    1
    20    15    17    1
@<TRIPOS>MOLECULE
*****
 17 20 0 0 0
SMALL
GASTEIGER

@<TRIPOS>ATOM
      1 C          62.3145   85.2054   11.4956 C.ar    1  UNL1       -0.0005
      2 C          63.0359   86.2380   12.3101 C.ar    1  UNL1       -0.0017
      3 C          62.8705   87.6943   11.9913 C.ar    1  UNL1        0.0067
      4 C          61.9838   88.1181   10.8581 C.ar    1  UNL1        0.0411
      5 C          61.2624   87.0855   10.0436 C.ar    1  UNL1       -0.0081
      6 C          61.4278   85.6292   10.3624 C.ar    1  UNL1       -0.0030
      7 C          60.4619   87.7988    8.9948 C.3     1  UNL1        0.0383
      8 C          59.5932   88.2972    7.8780 C.3     1  UNL1        0.0058
      9 C          59.2262   86.8843    7.5329 C.3     1  UNL1        0.0008
     10 C          60.0949   86.3859    8.6496 C.3     1  UNL1        0.0058
     11 C          60.6884   89.2722    9.1609 C.3     1  UNL1        0.0948
     12 N          61.6290   89.4696   10.3126 N.pl3   1  UNL1       -0.3062
     13 C          62.1153   90.7976   10.8124 C.3     1  UNL1        0.1078
     14 C          63.0503   91.0835   11.9501 C.3     1  UNL1        0.0905
     15 N          63.7298   90.1118   12.8689 N.3     1  UNL1       -0.2923
     16 C          63.6421   88.6144   12.8770 C.3     1  UNL1        0.0969
     17 H          63.4291   90.3903   13.8030 H       1  UNL1        0.1236
@<TRIPOS>BOND
     1     1     2   ar
     2     2     3   ar
     3     3     4   ar
     4     4     5   ar
     5     5     6   ar
     6     5     7    1
     7     7     8    1
     8     8     9    1
     9     9    10    1
    10     7    11    1
    11    11    12    1
    12    12    13    1
    13    13    14    1
    14    14    15    1
    15    15    16    1
    16     6     1   ar
    17    10     7    1
    18    16     3    1
    19    12     4    1
    20    15    17    1
@<TRIPOS>MOLECULE
*****
 17 20 0 0 0
SMALL
GASTEIGER

@<TRIPOS>ATOM
      1 C          61.7497   86.1255    9.8222 C.ar    1  UNL1       -0.0005
      2 C          62.0909   87.4289   10.4815 C.ar    1  UNL1       -0.0017
      3 C          62.7985   87.4377   11.8041 C.ar    1  UNL1        0.0067
      4 C          63.1648   86.1432   12.4674 C.ar    1  UNL1        0.0411
      5 C          62.8236   84.8397   11.8081 C.ar    1  UNL1       -0.0081
      6 C          62.1160   84.8310   10.4855 C.ar    1  UNL1       -0.0030
      7 C          63.3078   83.7311   12.6947 C.3     1  UNL1        0.0383
      8 C          63.7053   82.4779   13.4170 C.3     1  UNL1        0.0058
      9 C          63.1197   81.6535   12.3090 C.3     1  UNL1        0.0008
     10 C          62.7222   82.9067   11.5867 C.3     1  UNL1        0.0058
     11 C          63.9483   84.3491   13.9020 C.3     1  UNL1        0.0948
     12 N          63.8600   85.8399   13.7615 N.pl3   1  UNL1       -0.3062
     13 C          64.3833   86.8335   14.7560 C.3     1  UNL1        0.1078
     14 C          64.3372   88.3315   14.6944 C.3     1  UNL1        0.0905
     15 N          63.7562   89.2060   13.6230 N.3     1  UNL1       -0.2923
     16 C          63.0780   88.7984   12.3488 C.3     1  UNL1        0.0969
     17 H          64.5345   89.7925   13.3219 H       1  UNL1        0.1236
@<TRIPOS>BOND
     1     1     2   ar
     2     2     3   ar
     3     3     4   ar
     4     4     5   ar
     5     5     6   ar
     6     5     7    1
     7     7     8    1
     8     8     9    1
     9     9    10    1
    10     7    11    1
    11    11    12    1
    12    12    13    1
    13    13    14    1
    14    14    15    1
    15    15    16    1
    16     6     1   ar
    17    10     7    1
    18    16     3    1
    19    12     4    1
    20    15    17    1
@<TRIPOS>MOLECULE
*****
 17 20 0 0 0
SMALL
GASTEIGER

@<TRIPOS>ATOM
      1 C          65.9953   94.1610   10.8952 C.ar    1  UNL1       -0.0005
      2 C          65.0085   93.2010   10.2996 C.ar    1  UNL1       -0.0017
      3 C          64.4867   92.0577   11.1184 C.ar    1  UNL1        0.0067
      4 C          64.9516   91.8743   12.5327 C.ar    1  UNL1        0.0411
      5 C          65.9384   92.8342   13.1282 C.ar    1  UNL1       -0.0081
      6 C          66.4602   93.9776   12.3094 C.ar    1  UNL1       -0.0030
      7 C          66.2120   92.4024   14.5383 C.3     1  UNL1        0.0383
      8 C          66.6307   92.1557   15.9575 C.3     1  UNL1        0.0058
      9 C          67.5250   93.3588   15.9028 C.3     1  UNL1        0.0008
     10 C          67.1062   93.6055   14.4837 C.3     1  UNL1        0.0058
     11 C          65.3944   91.1755   14.8144 C.3     1  UNL1        0.0948
     12 N          64.6154   90.8491   13.5748 N.pl3   1  UNL1       -0.3062
     13 C          63.6709   89.6931   13.4279 C.3     1  UNL1        0.1078
     14 C          62.8570   89.2964   12.2320 C.3     1  UNL1        0.0905
     15 N          62.7866   89.9579   10.8875 N.3     1  UNL1       -0.2923
     16 C          63.5126   91.1793   10.4070 C.3     1  UNL1        0.0969
     17 H          61.7992   90.1827   10.7648 H       1  UNL1        0.1236
@<TRIPOS>BOND
     1     1     2   ar
     2     2     3   ar
     3     3     4   ar
     4     4     5   ar
     5     5     6   ar
     6     5     7    1
     7     7     8    1
     8     8     9    1
     9     9    10    1
    10     7    11    1
    11    11    12    1
    12    12    13    1
    13    13    14    1
    14    14    15    1
    15    15    16    1
    16     6     1   ar
    17    10     7    1
    18    16     3    1
    19    12     4    1
    20    15    17    1
@<TRIPOS>MOLECULE
*****
 17 20 0 0 0
SMALL
GASTEIGER

@<TRIPOS>ATOM
      1 C          64.4988   90.1470   14.4259 C.ar    1  UNL1       -0.0005
      2 C          63.8122   90.8086   13.2678 C.ar    1  UNL1       -0.0017
      3 C          63.1179   89.9751   12.2319 C.ar    1  UNL1        0.0067
      4 C          63.1102   88.4801   12.3539 C.ar    1  UNL1        0.0411
      5 C          63.7968   87.8185   13.5119 C.ar    1  UNL1       -0.0081
      6 C          64.4910   88.6520   14.5479 C.ar    1  UNL1       -0.0030
      7 C          63.6234   86.3356   13.3679 C.3     1  UNL1        0.0383
      8 C          63.5740   84.8374   13.4235 C.3     1  UNL1        0.0058
      9 C          64.3698   84.8583   14.6949 C.3     1  UNL1        0.0008
     10 C          64.4192   86.3565   14.6393 C.3     1  UNL1        0.0058
     11 C          62.8298   86.0806   12.1210 C.3     1  UNL1        0.0948
     12 N          62.5126   87.4059   11.4943 N.pl3   1  UNL1       -0.3062
     13 C          61.7318   87.5975   10.2279 C.3     1  UNL1        0.1078
     14 C          61.3714   88.8787    9.5360 C.3     1  UNL1        0.0905
     15 N          61.7028   90.2849    9.9398 N.3     1  UNL1       -0.2923
     16 C          62.4763   90.7570   11.1350 C.3     1  UNL1        0.0969
     17 H          60.7973   90.7470   10.0226 H       1  UNL1        0.1236
@<TRIPOS>BOND
     1     1     2   ar
     2     2     3   ar
     3     3     4   ar
     4     4     5   ar
     5     5     6   ar
     6     5     7    1
     7     7     8    1
     8     8     9    1
     9     9    10    1
    10     7    11    1
    11    11    12    1
    12    12    13    1
    13    13    14    1
    14    14    15    1
    15    15    16    1
    16     6     1   ar
    17    10     7    1
    18    16     3    1
    19    12     4    1
    20    15    17    1
@<TRIPOS>MOLECULE
*****
 17 20 0 0 0
SMALL
GASTEIGER

@<TRIPOS>ATOM
      1 C          61.6433   88.1078    9.6115 C.ar    1  UNL1       -0.0005
      2 C          62.0371   89.4349   10.1892 C.ar    1  UNL1       -0.0017
      3 C          62.7584   89.4966   11.5029 C.ar    1  UNL1        0.0067
      4 C          63.0859   88.2314   12.2390 C.ar    1  UNL1        0.0411
      5 C          62.6921   86.9042   11.6613 C.ar    1  UNL1       -0.0081
      6 C          61.9708   86.8425   10.3476 C.ar    1  UNL1       -0.0030
      7 C          63.1463   85.8334   12.6083 C.3     1  UNL1        0.0383
      8 C          63.5070   84.6118   13.4005 C.3     1  UNL1        0.0058
      9 C          62.8812   83.7447   12.3485 C.3     1  UNL1        0.0008
     10 C          62.5205   84.9664   11.5563 C.3     1  UNL1        0.0058
     11 C          63.8208   86.4986   13.7712 C.3     1  UNL1        0.0948
     12 N          63.7835   87.9806   13.5430 N.pl3   1  UNL1       -0.3062
     13 C          64.3518   89.0119   14.4721 C.3     1  UNL1        0.1078
     14 C          64.3578   90.5044   14.3219 C.3     1  UNL1        0.0905
     15 N          63.7967   91.3342   13.2053 N.3     1  UNL1       -0.2923
     16 C          63.0912   90.8764   11.9633 C.3     1  UNL1        0.0969
     17 H          64.5919   91.8736   12.8633 H       1  UNL1        0.1236
@<TRIPOS>BOND
     1     1     2   ar
     2     2     3   ar
     3     3     4   ar
     4     4     5   ar
     5     5     6   ar
     6     5     7    1
     7     7     8    1
     8     8     9    1
     9     9    10    1
    10     7    11    1
    11    11    12    1
    12    12    13    1
    13    13    14    1
    14    14    15    1
    15    15    16    1
    16     6     1   ar
    17    10     7    1
    18    16     3    1
    19    12     4    1
    20    15    17    1
