@<TRIPOS>MOLECULE
*****
 41 45 0 0 0
SMALL
GASTEIGER

@<TRIPOS>ATOM
      1 C          63.9956   91.4487   12.1444 C.2     1  UNL1        0.2411
      2 O          63.4686   91.2602   13.5360 O.2     1  UNL1       -0.2733
      3 N          63.3486   90.7355   10.9943 N.am    1  UNL1       -0.2966
      4 H          63.6946   90.8593   10.0810 H       1  UNL1        0.1499
      5 C          65.1698   92.3505   11.9028 C.3     1  UNL1        0.1555
      6 C          67.2919   92.8623   13.3117 C.2     1  UNL1        0.4017
      7 O          68.1010   91.9712   12.4167 O.2     1  UNL1       -0.2264
      8 N          65.8262   93.0520   13.0548 N.am    1  UNL1       -0.2637
      9 H          65.2951   93.6369   13.6422 H       1  UNL1        0.1532
     10 O          67.9483   93.5638   14.4636 O.3     1  UNL1       -0.4419
     11 C          67.5748   91.6240   15.2365 C.3     1  UNL1        0.0437
     12 C          68.4529   92.7732   15.6341 C.3     1  UNL1        0.1378
     13 C          69.3311   93.9223   16.0318 C.3     1  UNL1        0.0437
     14 C          68.9576   91.9824   16.8047 C.3     1  UNL1        0.0437
     15 C          65.6874   92.5507   10.5093 C.3     1  UNL1        0.0577
     16 C          66.1809   93.9004   10.0792 C.ar    1  UNL1        0.0074
     17 C          65.4973   95.1411   10.5726 C.ar    1  UNL1       -0.0020
     18 C          65.9907   96.4907   10.1424 C.ar    1  UNL1       -0.0002
     19 C          67.1677   96.5996    9.2190 C.ar    1  UNL1        0.0023
     20 C          67.8513   95.3590    8.7256 C.ar    1  UNL1        0.0293
     21 C          67.3578   94.0094    9.1557 C.ar    1  UNL1        0.1362
     22 F          68.0414   92.7686    8.6624 F       1  UNL1       -0.2045
     23 C          62.1745   89.8338   11.2359 C.3     1  UNL1        0.1543
     24 C          62.3958   88.3945   11.5958 C.ar    1  UNL1        0.1417
     25 N          63.3520   87.8817   12.6314 N.ar    1  UNL1       -0.2276
     26 C          63.2469   86.3856   12.6591 C.ar    1  UNL1        0.1167
     27 C          63.9491   85.3451   13.4801 C.ar    1  UNL1        0.0238
     28 C          63.6300   83.8928   13.2826 C.ar    1  UNL1        0.0223
     29 C          62.6087   83.4811   12.2640 C.ar    1  UNL1        0.1006
     30 N          61.9065   84.5216   11.4430 N.ar    1  UNL1       -0.2252
     31 C          62.2256   85.9739   11.6405 C.ar    1  UNL1        0.1626
     32 N          61.6996   87.2155   10.9834 N.ar    1  UNL1       -0.2990
     33 C          60.6599   87.2686    9.9035 C.3     1  UNL1        0.0898
     34 C          59.3929   87.6228    9.1829 C.3     1  UNL1        0.0273
     35 C          59.6442   88.1539   10.5630 C.3     1  UNL1        0.0273
     36 C          61.3144   86.4018    8.8689 C.ar    1  UNL1       -0.0037
     37 C          62.7891   86.1365    8.9369 C.ar    1  UNL1       -0.0025
     38 C          63.4437   85.2697    7.9023 C.ar    1  UNL1       -0.0003
     39 C          62.6234   84.6683    6.7998 C.ar    1  UNL1       -0.0000
     40 C          61.1486   84.9337    6.7319 C.ar    1  UNL1       -0.0003
     41 C          60.4941   85.8005    7.7665 C.ar    1  UNL1       -0.0025
@<TRIPOS>BOND
     1    11    12    1
     2    12    13    1
     3    12    14    1
     4    12    10    1
     5    10     6    1
     6     6     7    2
     7     6     8   am
     8     8     5    1
     9     5    15    1
    10    15    16    1
    11    16    17   ar
    12    17    18   ar
    13    18    19   ar
    14    19    20   ar
    15    20    21   ar
    16    21    22    1
    17     5     1    1
    18     1     2    2
    19     1     3   am
    20     3    23    1
    21    23    24    1
    22    24    25   ar
    23    25    26   ar
    24    26    27   ar
    25    27    28   ar
    26    28    29   ar
    27    29    30   ar
    28    30    31   ar
    29    31    32   ar
    30    32    33    1
    31    33    36    1
    32    36    37   ar
    33    37    38   ar
    34    38    39   ar
    35    39    40   ar
    36    40    41   ar
    37    33    34    1
    38    34    35    1
    39    21    16   ar
    40    32    24   ar
    41    35    33    1
    42    31    26   ar
    43    41    36   ar
    44     8     9    1
    45     3     4    1
@<TRIPOS>MOLECULE
*****
 41 45 0 0 0
SMALL
GASTEIGER

@<TRIPOS>ATOM
      1 C          64.4735   91.6040   11.4203 C.2     1  UNL1        0.2411
      2 O          63.5770   91.8997   10.2546 O.2     1  UNL1       -0.2733
      3 N          64.1930   90.4230   12.3015 N.am    1  UNL1       -0.2966
      4 H          64.7814   90.2289   13.0666 H       1  UNL1        0.1499
      5 C          65.6506   92.4893   11.7048 C.3     1  UNL1        0.1555
      6 C          66.6629   94.5491   10.4872 C.2     1  UNL1        0.4017
      7 O          67.7847   93.6951    9.9751 O.2     1  UNL1       -0.2264
      8 N          65.5959   93.9462   11.3521 N.am    1  UNL1       -0.2637
      9 H          64.8596   94.5067   11.6883 H       1  UNL1        0.1532
     10 O          66.6082   96.0060   10.1346 O.3     1  UNL1       -0.4419
     11 C          64.8284   96.8526    9.3502 C.3     1  UNL1        0.0437
     12 C          66.1467   96.4310    8.7721 C.3     1  UNL1        0.1378
     13 C          67.4650   96.0093    8.1941 C.3     1  UNL1        0.0437
     14 C          65.6851   96.8560    7.4096 C.3     1  UNL1        0.0437
     15 C          66.8823   91.9176   12.3419 C.3     1  UNL1        0.0577
     16 C          67.1680   92.1802   13.7909 C.ar    1  UNL1        0.0074
     17 C          66.0383   92.4387   14.7432 C.ar    1  UNL1       -0.0020
     18 C          66.3241   92.7013   16.1921 C.ar    1  UNL1       -0.0002
     19 C          67.7395   92.7053   16.6887 C.ar    1  UNL1        0.0023
     20 C          68.8691   92.4467   15.7364 C.ar    1  UNL1        0.0293
     21 C          68.5834   92.1842   14.2875 C.ar    1  UNL1        0.1362
     22 F          69.7131   91.9255   13.3352 F       1  UNL1       -0.2045
     23 C          63.0160   89.5377   12.0171 C.3     1  UNL1        0.1543
     24 C          63.0980   88.0670   12.3002 C.ar    1  UNL1        0.1417
     25 N          63.8268   87.4288   13.4455 N.ar    1  UNL1       -0.2276
     26 C          63.6448   85.9435   13.3408 C.ar    1  UNL1        0.1167
     27 C          64.1365   84.8098   14.1910 C.ar    1  UNL1        0.0238
     28 C          63.7868   83.3962   13.8312 C.ar    1  UNL1        0.0223
     29 C          62.9455   83.1164   12.6212 C.ar    1  UNL1        0.1006
     30 N          62.4538   84.2502   11.7711 N.ar    1  UNL1       -0.2252
     31 C          62.8035   85.6638   12.1309 C.ar    1  UNL1        0.1626
     32 N          62.4656   86.9761   11.4878 N.ar    1  UNL1       -0.2990
     33 C          61.6401   87.1645   10.2496 C.3     1  UNL1        0.0898
     34 C          61.1266   86.9663    8.8543 C.3     1  UNL1        0.0273
     35 C          62.2515   86.1169    9.3670 C.3     1  UNL1        0.0273
     36 C          60.7420   88.2774   10.7021 C.ar    1  UNL1       -0.0037
     37 C          59.8727   88.0952   11.9109 C.ar    1  UNL1       -0.0025
     38 C          58.9745   89.2081   12.3634 C.ar    1  UNL1       -0.0003
     39 C          58.9457   90.5032   11.6071 C.ar    1  UNL1       -0.0000
     40 C          59.8150   90.6853   10.3982 C.ar    1  UNL1       -0.0003
     41 C          60.7131   89.5724    9.9458 C.ar    1  UNL1       -0.0025
@<TRIPOS>BOND
     1    11    12    1
     2    12    13    1
     3    12    14    1
     4    12    10    1
     5    10     6    1
     6     6     7    2
     7     6     8   am
     8     8     5    1
     9     5    15    1
    10    15    16    1
    11    16    17   ar
    12    17    18   ar
    13    18    19   ar
    14    19    20   ar
    15    20    21   ar
    16    21    22    1
    17     5     1    1
    18     1     2    2
    19     1     3   am
    20     3    23    1
    21    23    24    1
    22    24    25   ar
    23    25    26   ar
    24    26    27   ar
    25    27    28   ar
    26    28    29   ar
    27    29    30   ar
    28    30    31   ar
    29    31    32   ar
    30    32    33    1
    31    33    36    1
    32    36    37   ar
    33    37    38   ar
    34    38    39   ar
    35    39    40   ar
    36    40    41   ar
    37    33    34    1
    38    34    35    1
    39    21    16   ar
    40    32    24   ar
    41    35    33    1
    42    31    26   ar
    43    41    36   ar
    44     8     9    1
    45     3     4    1
@<TRIPOS>MOLECULE
*****
 41 45 0 0 0
SMALL
GASTEIGER

@<TRIPOS>ATOM
      1 C          64.4457   91.5144   12.6801 C.2     1  UNL1        0.2411
      2 O          63.6373   91.6470   13.9366 O.2     1  UNL1       -0.2733
      3 N          64.0384   90.5270   11.6269 N.am    1  UNL1       -0.2966
      4 H          64.5690   90.4399   10.8023 H       1  UNL1        0.1499
      5 C          65.6615   92.3691   12.4767 C.3     1  UNL1        0.1555
      6 C          66.7225   92.4099   14.8480 C.2     1  UNL1        0.4017
      7 O          66.6276   90.9145   14.9162 O.2     1  UNL1       -0.2264
      8 N          66.2395   93.1372   13.6282 N.am    1  UNL1       -0.2637
      9 H          66.3018   94.1187   13.5834 H       1  UNL1        0.1532
     10 O          67.3005   93.1780   15.9994 O.3     1  UNL1       -0.4419
     11 C          68.9274   91.9222   16.5244 C.3     1  UNL1        0.0437
     12 C          68.7855   93.3572   16.1115 C.3     1  UNL1        0.1378
     13 C          68.6435   94.7922   15.6986 C.3     1  UNL1        0.0437
     14 C          70.2706   93.5363   16.2236 C.3     1  UNL1        0.0437
     15 C          66.2993   92.4557   11.1218 C.3     1  UNL1        0.0577
     16 C          66.5432   93.7950   10.4919 C.ar    1  UNL1        0.0074
     17 C          65.8886   95.0203   11.0576 C.ar    1  UNL1       -0.0020
     18 C          66.1325   96.3596   10.4277 C.ar    1  UNL1       -0.0002
     19 C          67.0311   96.4735    9.2321 C.ar    1  UNL1        0.0023
     20 C          67.6858   95.2483    8.6663 C.ar    1  UNL1        0.0293
     21 C          67.4418   93.9090    9.2963 C.ar    1  UNL1        0.1362
     22 F          68.0965   92.6837    8.7306 F       1  UNL1       -0.2045
     23 C          62.8227   89.6723   11.8303 C.3     1  UNL1        0.1543
     24 C          62.9754   88.2130   12.1421 C.ar    1  UNL1        0.1417
     25 N          63.7942   87.6303   13.2556 N.ar    1  UNL1       -0.2276
     26 C          63.6610   86.1374   13.1969 C.ar    1  UNL1        0.1167
     27 C          64.2438   85.0437   14.0419 C.ar    1  UNL1        0.0238
     28 C          63.9255   83.6100   13.7370 C.ar    1  UNL1        0.0223
     29 C          63.0243   83.2699   12.5871 C.ar    1  UNL1        0.1006
     30 N          62.4414   84.3636   11.7421 N.ar    1  UNL1       -0.2252
     31 C          62.7598   85.7974   12.0470 C.ar    1  UNL1        0.1626
     32 N          62.3361   87.0802   11.3952 N.ar    1  UNL1       -0.2990
     33 C          61.4318   87.2077   10.2052 C.3     1  UNL1        0.0898
     34 C          60.8323   86.9440    8.8557 C.3     1  UNL1        0.0273
     35 C          61.9955   86.1257    9.3324 C.3     1  UNL1        0.0273
     36 C          60.5540   88.3339   10.6646 C.ar    1  UNL1       -0.0037
     37 C          60.5254   89.6230    9.8983 C.ar    1  UNL1       -0.0025
     38 C          59.6476   90.7493   10.3577 C.ar    1  UNL1       -0.0003
     39 C          58.7984   90.5864   11.5834 C.ar    1  UNL1       -0.0000
     40 C          58.8270   89.2971   12.3497 C.ar    1  UNL1       -0.0003
     41 C          59.7047   88.1709   11.8903 C.ar    1  UNL1       -0.0025
@<TRIPOS>BOND
     1    11    12    1
     2    12    13    1
     3    12    14    1
     4    12    10    1
     5    10     6    1
     6     6     7    2
     7     6     8   am
     8     8     5    1
     9     5    15    1
    10    15    16    1
    11    16    17   ar
    12    17    18   ar
    13    18    19   ar
    14    19    20   ar
    15    20    21   ar
    16    21    22    1
    17     5     1    1
    18     1     2    2
    19     1     3   am
    20     3    23    1
    21    23    24    1
    22    24    25   ar
    23    25    26   ar
    24    26    27   ar
    25    27    28   ar
    26    28    29   ar
    27    29    30   ar
    28    30    31   ar
    29    31    32   ar
    30    32    33    1
    31    33    36    1
    32    36    37   ar
    33    37    38   ar
    34    38    39   ar
    35    39    40   ar
    36    40    41   ar
    37    33    34    1
    38    34    35    1
    39    21    16   ar
    40    32    24   ar
    41    35    33    1
    42    31    26   ar
    43    41    36   ar
    44     8     9    1
    45     3     4    1
@<TRIPOS>MOLECULE
*****
 41 45 0 0 0
SMALL
GASTEIGER

@<TRIPOS>ATOM
      1 C          63.6167   89.5595   12.8978 C.2     1  UNL1        0.2411
      2 O          63.1560   90.2678   11.6584 O.2     1  UNL1       -0.2733
      3 N          63.4422   88.0749   13.0219 N.am    1  UNL1       -0.2966
      4 H          63.7446   87.6100   13.8354 H       1  UNL1        0.1499
      5 C          64.2519   90.3359   14.0131 C.3     1  UNL1        0.1555
      6 C          63.1200   89.3012   16.1103 C.2     1  UNL1        0.4017
      7 O          61.7747   89.4753   15.4701 O.2     1  UNL1       -0.2264
      8 N          64.3586   89.7315   15.3817 N.am    1  UNL1       -0.2637
      9 H          65.2416   89.6173   15.8019 H       1  UNL1        0.1532
     10 O          63.2268   88.6968   17.4789 O.3     1  UNL1       -0.4419
     11 C          62.5636   87.4647   19.0733 C.3     1  UNL1        0.0437
     12 C          63.0221   87.2226   17.6658 C.3     1  UNL1        0.1378
     13 C          63.4807   86.9805   16.2583 C.3     1  UNL1        0.0437
     14 C          62.8175   85.7484   17.8528 C.3     1  UNL1        0.0437
     15 C          64.7803   91.7167   13.7596 C.3     1  UNL1        0.0577
     16 C          66.0856   92.1428   14.3636 C.ar    1  UNL1        0.0074
     17 C          66.1463   92.5547   15.8046 C.ar    1  UNL1       -0.0020
     18 C          67.4515   92.9807   16.4085 C.ar    1  UNL1       -0.0002
     19 C          68.6961   92.9949   15.5714 C.ar    1  UNL1        0.0023
     20 C          68.6355   92.5829   14.1304 C.ar    1  UNL1        0.0293
     21 C          67.3302   92.1569   13.5265 C.ar    1  UNL1        0.1362
     22 F          67.2695   91.7449   12.0854 F       1  UNL1       -0.2045
     23 C          62.8071   87.2985   11.9067 C.3     1  UNL1        0.1543
     24 C          62.7478   85.8012   11.9741 C.ar    1  UNL1        0.1417
     25 N          62.6481   84.9781   13.2241 N.ar    1  UNL1       -0.2276
     26 C          62.6165   83.5323   12.8259 C.ar    1  UNL1        0.1167
     27 C          62.5251   82.2708   13.6323 C.ar    1  UNL1        0.0238
     28 C          62.5138   80.9389   12.9426 C.ar    1  UNL1        0.0223
     29 C          62.5940   80.8684   11.4464 C.ar    1  UNL1        0.1006
     30 N          62.6854   82.1298   10.6399 N.ar    1  UNL1       -0.2252
     31 C          62.6966   83.4618   11.3297 C.ar    1  UNL1        0.1626
     32 N          62.7778   84.8640   10.8033 N.ar    1  UNL1       -0.2990
     33 C          62.8723   85.2596    9.3595 C.3     1  UNL1        0.0898
     34 C          63.3206   85.2730    7.9281 C.3     1  UNL1        0.0273
     35 C          63.9239   84.2966    8.8938 C.3     1  UNL1        0.0273
     36 C          61.8535   86.3600    9.3236 C.ar    1  UNL1       -0.0037
     37 C          62.2953   87.7927    9.3684 C.ar    1  UNL1       -0.0025
     38 C          61.2765   88.8932    9.3326 C.ar    1  UNL1       -0.0003
     39 C          59.8161   88.5607    9.2520 C.ar    1  UNL1       -0.0000
     40 C          59.3743   87.1279    9.2073 C.ar    1  UNL1       -0.0003
     41 C          60.3931   86.0275    9.2431 C.ar    1  UNL1       -0.0025
@<TRIPOS>BOND
     1    11    12    1
     2    12    13    1
     3    12    14    1
     4    12    10    1
     5    10     6    1
     6     6     7    2
     7     6     8   am
     8     8     5    1
     9     5    15    1
    10    15    16    1
    11    16    17   ar
    12    17    18   ar
    13    18    19   ar
    14    19    20   ar
    15    20    21   ar
    16    21    22    1
    17     5     1    1
    18     1     2    2
    19     1     3   am
    20     3    23    1
    21    23    24    1
    22    24    25   ar
    23    25    26   ar
    24    26    27   ar
    25    27    28   ar
    26    28    29   ar
    27    29    30   ar
    28    30    31   ar
    29    31    32   ar
    30    32    33    1
    31    33    36    1
    32    36    37   ar
    33    37    38   ar
    34    38    39   ar
    35    39    40   ar
    36    40    41   ar
    37    33    34    1
    38    34    35    1
    39    21    16   ar
    40    32    24   ar
    41    35    33    1
    42    31    26   ar
    43    41    36   ar
    44     8     9    1
    45     3     4    1
@<TRIPOS>MOLECULE
*****
 41 45 0 0 0
SMALL
GASTEIGER

@<TRIPOS>ATOM
      1 C          63.3229   89.6575   12.6764 C.2     1  UNL1        0.2411
      2 O          62.1643   90.3003   11.9734 O.2     1  UNL1       -0.2733
      3 N          63.5096   88.1707   12.6096 N.am    1  UNL1       -0.2966
      4 H          64.2701   87.7488   13.0710 H       1  UNL1        0.1499
      5 C          64.2950   90.5016   13.4464 C.3     1  UNL1        0.1555
      6 C          66.0711   92.3639   13.0895 C.2     1  UNL1        0.4017
      7 O          67.1110   91.4955   13.7331 O.2     1  UNL1       -0.2264
      8 N          64.6630   91.8669   12.9462 N.am    1  UNL1       -0.2637
      9 H          63.9804   92.4369   12.5237 H       1  UNL1        0.1532
     10 O          66.4391   93.7293   12.5893 O.3     1  UNL1       -0.4419
     11 C          67.0631   92.5847   10.9159 C.3     1  UNL1        0.0437
     12 C          66.5551   93.9819   11.1153 C.3     1  UNL1        0.1378
     13 C          66.0471   95.3790   11.3147 C.3     1  UNL1        0.0437
     14 C          66.6712   94.2344    9.6412 C.3     1  UNL1        0.0437
     15 C          64.8990   89.9802   14.7166 C.3     1  UNL1        0.0577
     16 C          64.1501   88.9815   15.5485 C.ar    1  UNL1        0.0074
     17 C          63.1149   89.4479   16.5287 C.ar    1  UNL1       -0.0020
     18 C          62.3661   88.4493   17.3605 C.ar    1  UNL1       -0.0002
     19 C          62.6524   86.9843   17.2121 C.ar    1  UNL1        0.0023
     20 C          63.6876   86.5180   16.2319 C.ar    1  UNL1        0.0293
     21 C          64.4365   87.5166   15.4001 C.ar    1  UNL1        0.1362
     22 F          65.4717   87.0503   14.4198 F       1  UNL1       -0.2045
     23 C          62.5376   87.3266   11.8397 C.3     1  UNL1        0.1543
     24 C          62.5502   85.8350   11.9978 C.ar    1  UNL1        0.1417
     25 N          62.4157   85.0841   13.2894 N.ar    1  UNL1       -0.2276
     26 C          62.4819   83.6175   12.9820 C.ar    1  UNL1        0.1167
     27 C          62.4050   82.4035   13.8597 C.ar    1  UNL1        0.0238
     28 C          62.5036   81.0340   13.2559 C.ar    1  UNL1        0.0223
     29 C          62.6791   80.8784   11.7743 C.ar    1  UNL1        0.1006
     30 N          62.7559   82.0923   10.8966 N.ar    1  UNL1       -0.2252
     31 C          62.6573   83.4619   11.5004 C.ar    1  UNL1        0.1626
     32 N          62.6995   84.8324   10.8922 N.ar    1  UNL1       -0.2990
     33 C          62.8625   85.1453    9.4343 C.3     1  UNL1        0.0898
     34 C          63.3808   85.0808    8.0282 C.3     1  UNL1        0.0273
     35 C          63.9424   84.1673    9.0770 C.3     1  UNL1        0.0273
     36 C          61.8392   86.2318    9.2851 C.ar    1  UNL1       -0.0037
     37 C          60.3965   85.8795    9.0748 C.ar    1  UNL1       -0.0025
     38 C          59.3731   86.9661    8.9256 C.ar    1  UNL1       -0.0003
     39 C          59.7926   88.4049    8.9867 C.ar    1  UNL1       -0.0000
     40 C          61.2355   88.7572    9.1971 C.ar    1  UNL1       -0.0003
     41 C          62.2587   87.6707    9.3463 C.ar    1  UNL1       -0.0025
@<TRIPOS>BOND
     1    11    12    1
     2    12    13    1
     3    12    14    1
     4    12    10    1
     5    10     6    1
     6     6     7    2
     7     6     8   am
     8     8     5    1
     9     5    15    1
    10    15    16    1
    11    16    17   ar
    12    17    18   ar
    13    18    19   ar
    14    19    20   ar
    15    20    21   ar
    16    21    22    1
    17     5     1    1
    18     1     2    2
    19     1     3   am
    20     3    23    1
    21    23    24    1
    22    24    25   ar
    23    25    26   ar
    24    26    27   ar
    25    27    28   ar
    26    28    29   ar
    27    29    30   ar
    28    30    31   ar
    29    31    32   ar
    30    32    33    1
    31    33    36    1
    32    36    37   ar
    33    37    38   ar
    34    38    39   ar
    35    39    40   ar
    36    40    41   ar
    37    33    34    1
    38    34    35    1
    39    21    16   ar
    40    32    24   ar
    41    35    33    1
    42    31    26   ar
    43    41    36   ar
    44     8     9    1
    45     3     4    1
