@<TRIPOS>MOLECULE
*****
 22 25 0 0 0
SMALL
GASTEIGER

@<TRIPOS>ATOM
      1 O          63.3195   89.6393   12.5537 O.2     1  UNL1       -0.2638
      2 C          62.5103   88.9291   11.5092 C.2     1  UNL1        0.3160
      3 N          61.7995   89.7156   10.4480 N.am    1  UNL1       -0.1720
      4 C          60.9903   89.0054    9.4035 C.ar    1  UNL1        0.0780
      5 C          60.2795   89.7918    8.3423 C.ar    1  UNL1        0.0234
      6 C          59.4704   89.0816    7.2979 C.ar    1  UNL1        0.0359
      7 BR         58.7596   89.8681    6.2366 Br      1  UNL1       -0.0490
      8 C          59.3720   87.5850    7.3147 C.ar    1  UNL1        0.0069
      9 C          60.0828   86.7985    8.3759 C.ar    1  UNL1        0.0056
     10 C          60.8919   87.5087    9.4203 C.ar    1  UNL1        0.0623
     11 C          61.6028   86.7222   10.4816 C.2     1  UNL1        0.2419
     12 N          61.6890   85.2491   10.7507 N.2     1  UNL1       -0.0302
     13 C          62.5514   85.0489   11.9616 C.2     1  UNL1        0.3765
     14 N          62.9982   86.3982   12.4407 N.2     1  UNL1       -0.0256
     15 C          62.4119   87.4324   11.5260 C.2     1  UNL1        0.2907
     16 C          62.9050   83.7306   12.5840 C.ar    1  UNL1        0.0989
     17 C          62.2948   83.3326   13.8951 C.ar    1  UNL1        0.0085
     18 C          62.6484   82.0144   14.5175 C.ar    1  UNL1        0.0003
     19 C          63.6122   81.0943   13.8286 C.ar    1  UNL1        0.0009
     20 C          64.2224   81.4923   12.5175 C.ar    1  UNL1        0.0116
     21 C          63.8688   82.8105   11.8952 C.ar    1  UNL1        0.0651
     22 CL         64.4790   83.2086   10.5839 Cl      1  UNL1       -0.0820
@<TRIPOS>BOND
     1     1     2    2
     2     2     3    1
     3     3     4    2
     4     4     5   ar
     5     5     6   ar
     6     6     7    1
     7     6     8   ar
     8     8     9   ar
     9     9    10   ar
    10    10    11    2
    11    11    12    1
    12    12    13    2
    13    13    16    1
    14    16    17   ar
    15    17    18   ar
    16    18    19   ar
    17    19    20   ar
    18    20    21   ar
    19    21    22    1
    20    13    14    1
    21    14    15    2
    22    15     2    1
    23    10     4   ar
    24    15    11    1
    25    21    16   ar
@<TRIPOS>MOLECULE
*****
 22 25 0 0 0
SMALL
GASTEIGER

@<TRIPOS>ATOM
      1 O          61.2286   87.7910    9.3299 O.2     1  UNL1       -0.2638
      2 C          62.0424   87.9484   10.5801 C.2     1  UNL1        0.3160
      3 N          62.5303   89.3059   10.9915 N.am    1  UNL1       -0.1720
      4 C          63.3441   89.4633   12.2417 C.ar    1  UNL1        0.0780
      5 C          63.8320   90.8208   12.6530 C.ar    1  UNL1        0.0234
      6 C          64.6458   90.9782   13.9032 C.ar    1  UNL1        0.0359
      7 BR         65.1337   92.3357   14.3146 Br      1  UNL1       -0.0490
      8 C          64.9718   89.7781   14.7419 C.ar    1  UNL1        0.0069
      9 C          64.4840   88.4206   14.3305 C.ar    1  UNL1        0.0056
     10 C          63.6702   88.2633   13.0804 C.ar    1  UNL1        0.0623
     11 C          63.1823   86.9057   12.6690 C.2     1  UNL1        0.2419
     12 N          63.3450   85.5501   13.2900 N.2     1  UNL1       -0.0302
     13 C          62.6317   84.5548   12.4236 C.2     1  UNL1        0.3765
     14 N          62.0282   85.2954   11.2672 N.2     1  UNL1       -0.0256
     15 C          62.3685   86.7483   11.4189 C.2     1  UNL1        0.2907
     16 C          62.5383   83.0781   12.6704 C.ar    1  UNL1        0.0989
     17 C          61.9223   82.5672   13.9390 C.ar    1  UNL1        0.0085
     18 C          61.8289   81.0906   14.1857 C.ar    1  UNL1        0.0003
     19 C          62.3515   80.1249   13.1638 C.ar    1  UNL1        0.0009
     20 C          62.9675   80.6358   11.8952 C.ar    1  UNL1        0.0116
     21 C          63.0609   82.1124   11.6485 C.ar    1  UNL1        0.0651
     22 CL         63.6769   82.6234   10.3798 Cl      1  UNL1       -0.0820
@<TRIPOS>BOND
     1     1     2    2
     2     2     3    1
     3     3     4    2
     4     4     5   ar
     5     5     6   ar
     6     6     7    1
     7     6     8   ar
     8     8     9   ar
     9     9    10   ar
    10    10    11    2
    11    11    12    1
    12    12    13    2
    13    13    16    1
    14    16    17   ar
    15    17    18   ar
    16    18    19   ar
    17    19    20   ar
    18    20    21   ar
    19    21    22    1
    20    13    14    1
    21    14    15    2
    22    15     2    1
    23    10     4   ar
    24    15    11    1
    25    21    16   ar
@<TRIPOS>MOLECULE
*****
 22 25 0 0 0
SMALL
GASTEIGER

@<TRIPOS>ATOM
      1 O          63.5994   85.2004   13.6262 O.2     1  UNL1       -0.2638
      2 C          63.0364   86.2537   12.7185 C.2     1  UNL1        0.3160
      3 N          62.1106   85.8663   11.6037 N.am    1  UNL1       -0.1720
      4 C          61.5477   86.9195   10.6960 C.ar    1  UNL1        0.0780
      5 C          60.6219   86.5321    9.5812 C.ar    1  UNL1        0.0234
      6 C          60.0590   87.5853    8.6736 C.ar    1  UNL1        0.0359
      7 BR         59.1332   87.1979    7.5587 Br      1  UNL1       -0.0490
      8 C          60.4219   89.0259    8.8807 C.ar    1  UNL1        0.0069
      9 C          61.3477   89.4133    9.9955 C.ar    1  UNL1        0.0056
     10 C          61.9106   88.3601   10.9032 C.ar    1  UNL1        0.0623
     11 C          62.8364   88.7475   12.0180 C.2     1  UNL1        0.2419
     12 N          63.3700   90.0767   12.4634 N.2     1  UNL1       -0.0302
     13 C          64.2627   89.8450   13.6464 C.2     1  UNL1        0.3765
     14 N          64.2808   88.3726   13.9320 N.2     1  UNL1       -0.0256
     15 C          63.3993   87.6943   12.9257 C.2     1  UNL1        0.2907
     16 C          65.0067   90.9005   14.4096 C.ar    1  UNL1        0.0989
     17 C          66.1820   91.5907   13.7834 C.ar    1  UNL1        0.0085
     18 C          66.9260   92.6462   14.5467 C.ar    1  UNL1        0.0003
     19 C          66.4946   93.0113   15.9361 C.ar    1  UNL1        0.0009
     20 C          65.3193   92.3211   16.5623 C.ar    1  UNL1        0.0116
     21 C          64.5753   91.2657   15.7991 C.ar    1  UNL1        0.0651
     22 CL         63.3999   90.5754   16.4253 Cl      1  UNL1       -0.0820
@<TRIPOS>BOND
     1     1     2    2
     2     2     3    1
     3     3     4    2
     4     4     5   ar
     5     5     6   ar
     6     6     7    1
     7     6     8   ar
     8     8     9   ar
     9     9    10   ar
    10    10    11    2
    11    11    12    1
    12    12    13    2
    13    13    16    1
    14    16    17   ar
    15    17    18   ar
    16    18    19   ar
    17    19    20   ar
    18    20    21   ar
    19    21    22    1
    20    13    14    1
    21    14    15    2
    22    15     2    1
    23    10     4   ar
    24    15    11    1
    25    21    16   ar
@<TRIPOS>MOLECULE
*****
 22 25 0 0 0
SMALL
GASTEIGER

@<TRIPOS>ATOM
      1 O          63.6699   86.8299   14.8580 O.2     1  UNL1       -0.2638
      2 C          63.9298   88.1224   14.1423 C.2     1  UNL1        0.3160
      3 N          64.8145   89.1605   14.7664 N.am    1  UNL1       -0.1720
      4 C          65.0744   90.4529   14.0507 C.ar    1  UNL1        0.0780
      5 C          65.9591   91.4911   14.6748 C.ar    1  UNL1        0.0234
      6 C          66.2189   92.7835   13.9592 C.ar    1  UNL1        0.0359
      7 BR         67.1037   93.8217   14.5832 Br      1  UNL1       -0.0490
      8 C          65.5940   93.0377   12.6194 C.ar    1  UNL1        0.0069
      9 C          64.7093   91.9996   11.9954 C.ar    1  UNL1        0.0056
     10 C          64.4495   90.7072   12.7110 C.ar    1  UNL1        0.0623
     11 C          63.5647   89.6690   12.0869 C.2     1  UNL1        0.2419
     12 N          62.8161   89.6380   10.7875 N.2     1  UNL1       -0.0302
     13 C          62.0936   88.3264   10.7000 C.2     1  UNL1        0.3765
     14 N          62.3957   87.5468   11.9454 N.2     1  UNL1       -0.0256
     15 C          63.3049   88.3766   12.8026 C.2     1  UNL1        0.2907
     16 C          61.2220   87.8738    9.5662 C.ar    1  UNL1        0.0989
     17 C          60.1723   88.7922    9.0143 C.ar    1  UNL1        0.0085
     18 C          59.3008   88.3396    7.8805 C.ar    1  UNL1        0.0003
     19 C          59.4789   86.9686    7.2986 C.ar    1  UNL1        0.0009
     20 C          60.5285   86.0501    7.8505 C.ar    1  UNL1        0.0116
     21 C          61.4001   86.5027    8.9843 C.ar    1  UNL1        0.0651
     22 CL         62.4498   85.5843    9.5363 Cl      1  UNL1       -0.0820
@<TRIPOS>BOND
     1     1     2    2
     2     2     3    1
     3     3     4    2
     4     4     5   ar
     5     5     6   ar
     6     6     7    1
     7     6     8   ar
     8     8     9   ar
     9     9    10   ar
    10    10    11    2
    11    11    12    1
    12    12    13    2
    13    13    16    1
    14    16    17   ar
    15    17    18   ar
    16    18    19   ar
    17    19    20   ar
    18    20    21   ar
    19    21    22    1
    20    13    14    1
    21    14    15    2
    22    15     2    1
    23    10     4   ar
    24    15    11    1
    25    21    16   ar
@<TRIPOS>MOLECULE
*****
 22 25 0 0 0
SMALL
GASTEIGER

@<TRIPOS>ATOM
      1 O          61.2154   87.9009    9.3702 O.2     1  UNL1       -0.2638
      2 C          62.0465   88.0490   10.6102 C.2     1  UNL1        0.3160
      3 N          62.5322   89.4046   11.0300 N.am    1  UNL1       -0.1720
      4 C          63.3633   89.5527   12.2701 C.ar    1  UNL1        0.0780
      5 C          63.8491   90.9083   12.6899 C.ar    1  UNL1        0.0234
      6 C          64.6800   91.0564   13.9298 C.ar    1  UNL1        0.0359
      7 BR         65.1659   92.4120   14.3497 Br      1  UNL1       -0.0490
      8 C          65.0252   89.8488   14.7499 C.ar    1  UNL1        0.0069
      9 C          64.5395   88.4932   14.3301 C.ar    1  UNL1        0.0056
     10 C          63.7085   88.3451   13.0902 C.ar    1  UNL1        0.0623
     11 C          63.2226   86.9895   12.6703 C.2     1  UNL1        0.2419
     12 N          63.4023   85.6278   13.2733 N.2     1  UNL1       -0.0302
     13 C          62.6823   84.6382   12.4060 C.2     1  UNL1        0.3765
     14 N          62.0577   85.3883   11.2670 N.2     1  UNL1       -0.0256
     15 C          62.3917   86.8414   11.4304 C.2     1  UNL1        0.2907
     16 C          62.6011   83.1583   12.6371 C.ar    1  UNL1        0.0989
     17 C          62.8660   82.2072   11.5079 C.ar    1  UNL1        0.0085
     18 C          62.7848   80.7274   11.7391 C.ar    1  UNL1        0.0003
     19 C          62.4388   80.1986   13.0995 C.ar    1  UNL1        0.0009
     20 C          62.1739   81.1497   14.2287 C.ar    1  UNL1        0.0116
     21 C          62.2551   82.6296   13.9975 C.ar    1  UNL1        0.0651
     22 CL         61.9902   83.5808   15.1268 Cl      1  UNL1       -0.0820
@<TRIPOS>BOND
     1     1     2    2
     2     2     3    1
     3     3     4    2
     4     4     5   ar
     5     5     6   ar
     6     6     7    1
     7     6     8   ar
     8     8     9   ar
     9     9    10   ar
    10    10    11    2
    11    11    12    1
    12    12    13    2
    13    13    16    1
    14    16    17   ar
    15    17    18   ar
    16    18    19   ar
    17    19    20   ar
    18    20    21   ar
    19    21    22    1
    20    13    14    1
    21    14    15    2
    22    15     2    1
    23    10     4   ar
    24    15    11    1
    25    21    16   ar
@<TRIPOS>MOLECULE
*****
 22 25 0 0 0
SMALL
GASTEIGER

@<TRIPOS>ATOM
      1 O          61.9489   89.8284    9.8469 O.2     1  UNL1       -0.2638
      2 C          62.9763   90.5779   10.6425 C.2     1  UNL1        0.3160
      3 N          63.5680   91.8447   10.0992 N.am    1  UNL1       -0.1720
      4 C          64.5954   92.5941   10.8948 C.ar    1  UNL1        0.0780
      5 C          65.1870   93.8609   10.3515 C.ar    1  UNL1        0.0234
      6 C          66.2144   94.6102   11.1471 C.ar    1  UNL1        0.0359
      7 BR         66.8061   95.8771   10.6038 Br      1  UNL1       -0.0490
      8 C          66.6501   94.0928   12.4859 C.ar    1  UNL1        0.0069
      9 C          66.0584   92.8261   13.0292 C.ar    1  UNL1        0.0056
     10 C          65.0311   92.0767   12.2336 C.ar    1  UNL1        0.0623
     11 C          64.4393   90.8099   12.7769 C.2     1  UNL1        0.2419
     12 N          64.6712   90.0618   14.0562 N.2     1  UNL1       -0.0302
     13 C          63.7871   88.8500   14.0513 C.2     1  UNL1        0.3765
     14 N          63.0089   88.8492   12.7690 N.2     1  UNL1       -0.0256
     15 C          63.4120   90.0605   11.9813 C.2     1  UNL1        0.2907
     16 C          63.6971   87.8199   15.1380 C.ar    1  UNL1        0.0989
     17 C          64.2026   86.4286   14.8962 C.ar    1  UNL1        0.0085
     18 C          64.1126   85.3985   15.9829 C.ar    1  UNL1        0.0003
     19 C          63.5169   85.7599   17.3113 C.ar    1  UNL1        0.0009
     20 C          63.0114   87.1512   17.5530 C.ar    1  UNL1        0.0116
     21 C          63.1014   88.1812   16.4664 C.ar    1  UNL1        0.0651
     22 CL         62.5958   89.5727   16.7081 Cl      1  UNL1       -0.0820
@<TRIPOS>BOND
     1     1     2    2
     2     2     3    1
     3     3     4    2
     4     4     5   ar
     5     5     6   ar
     6     6     7    1
     7     6     8   ar
     8     8     9   ar
     9     9    10   ar
    10    10    11    2
    11    11    12    1
    12    12    13    2
    13    13    16    1
    14    16    17   ar
    15    17    18   ar
    16    18    19   ar
    17    19    20   ar
    18    20    21   ar
    19    21    22    1
    20    13    14    1
    21    14    15    2
    22    15     2    1
    23    10     4   ar
    24    15    11    1
    25    21    16   ar
@<TRIPOS>MOLECULE
*****
 22 25 0 0 0
SMALL
GASTEIGER

@<TRIPOS>ATOM
      1 O          64.6601   85.6588   15.6183 O.2     1  UNL1       -0.2638
      2 C          64.0634   86.0565   14.3008 C.2     1  UNL1        0.3160
      3 N          63.8994   87.5079   13.9593 N.am    1  UNL1       -0.1720
      4 C          63.3027   87.9056   12.6417 C.ar    1  UNL1        0.0780
      5 C          63.1387   89.3569   12.3002 C.ar    1  UNL1        0.0234
      6 C          62.5420   89.7546   10.9827 C.ar    1  UNL1        0.0359
      7 BR         62.3780   91.2060   10.6412 Br      1  UNL1       -0.0490
      8 C          62.1095   88.7009   10.0067 C.ar    1  UNL1        0.0069
      9 C          62.2735   87.2496   10.3482 C.ar    1  UNL1        0.0056
     10 C          62.8701   86.8519   11.6657 C.ar    1  UNL1        0.0623
     11 C          63.0342   85.4005   12.0073 C.2     1  UNL1        0.2419
     12 N          62.7024   84.1479   11.2517 N.2     1  UNL1       -0.0302
     13 C          63.0940   82.9761   12.1023 C.2     1  UNL1        0.3765
     14 N          63.6678   83.5045   13.3835 N.2     1  UNL1       -0.0256
     15 C          63.6308   85.0029   13.3248 C.2     1  UNL1        0.2907
     16 C          62.9389   81.5298   11.7359 C.ar    1  UNL1        0.0989
     17 C          63.1638   81.0863   10.3207 C.ar    1  UNL1        0.0085
     18 C          63.0088   79.6400    9.9544 C.ar    1  UNL1        0.0003
     19 C          62.6288   78.6372   11.0033 C.ar    1  UNL1        0.0009
     20 C          62.4039   79.0807   12.4184 C.ar    1  UNL1        0.0116
     21 C          62.5590   80.5270   12.7847 C.ar    1  UNL1        0.0651
     22 CL         62.3341   80.9705   14.2000 Cl      1  UNL1       -0.0820
@<TRIPOS>BOND
     1     1     2    2
     2     2     3    1
     3     3     4    2
     4     4     5   ar
     5     5     6   ar
     6     6     7    1
     7     6     8   ar
     8     8     9   ar
     9     9    10   ar
    10    10    11    2
    11    11    12    1
    12    12    13    2
    13    13    16    1
    14    16    17   ar
    15    17    18   ar
    16    18    19   ar
    17    19    20   ar
    18    20    21   ar
    19    21    22    1
    20    13    14    1
    21    14    15    2
    22    15     2    1
    23    10     4   ar
    24    15    11    1
    25    21    16   ar
@<TRIPOS>MOLECULE
*****
 22 25 0 0 0
SMALL
GASTEIGER

@<TRIPOS>ATOM
      1 O          64.7551   90.2915   14.7482 O.2     1  UNL1       -0.2638
      2 C          64.0877   90.2318   13.4061 C.2     1  UNL1        0.3160
      3 N          63.0850   89.1551   13.1143 N.am    1  UNL1       -0.1720
      4 C          62.4176   89.0954   11.7722 C.ar    1  UNL1        0.0780
      5 C          61.4150   88.0187   11.4804 C.ar    1  UNL1        0.0234
      6 C          60.7476   87.9590   10.1384 C.ar    1  UNL1        0.0359
      7 BR         59.7449   86.8822    9.8466 Br      1  UNL1       -0.0490
      8 C          61.0830   88.9761    9.0882 C.ar    1  UNL1        0.0069
      9 C          62.0857   90.0529    9.3800 C.ar    1  UNL1        0.0056
     10 C          62.7530   90.1125   10.7220 C.ar    1  UNL1        0.0623
     11 C          63.7558   91.1893   11.0138 C.2     1  UNL1        0.2419
     12 N          64.2842   92.3206   10.1826 N.2     1  UNL1       -0.0302
     13 C          65.2782   93.0794   11.0110 C.2     1  UNL1        0.3765
     14 N          65.3640   92.4171   12.3541 N.2     1  UNL1       -0.0256
     15 C          64.4231   91.2490   12.3558 C.2     1  UNL1        0.2907
     16 C          66.0507   94.2884   10.5731 C.ar    1  UNL1        0.0989
     17 C          65.6706   95.6467   11.0832 C.ar    1  UNL1        0.0085
     18 C          66.4431   96.8555   10.6453 C.ar    1  UNL1        0.0003
     19 C          67.5958   96.7060    9.6972 C.ar    1  UNL1        0.0009
     20 C          67.9760   95.3477    9.1870 C.ar    1  UNL1        0.0116
     21 C          67.2034   94.1389    9.6249 C.ar    1  UNL1        0.0651
     22 CL         67.5836   92.7804    9.1147 Cl      1  UNL1       -0.0820
@<TRIPOS>BOND
     1     1     2    2
     2     2     3    1
     3     3     4    2
     4     4     5   ar
     5     5     6   ar
     6     6     7    1
     7     6     8   ar
     8     8     9   ar
     9     9    10   ar
    10    10    11    2
    11    11    12    1
    12    12    13    2
    13    13    16    1
    14    16    17   ar
    15    17    18   ar
    16    18    19   ar
    17    19    20   ar
    18    20    21   ar
    19    21    22    1
    20    13    14    1
    21    14    15    2
    22    15     2    1
    23    10     4   ar
    24    15    11    1
    25    21    16   ar
@<TRIPOS>MOLECULE
*****
 22 25 0 0 0
SMALL
GASTEIGER

@<TRIPOS>ATOM
      1 O          67.6931   93.8856   15.5411 O.2     1  UNL1       -0.2638
      2 C          66.7942   92.9355   14.8066 C.2     1  UNL1        0.3160
      3 N          66.3025   91.6916   15.4856 N.am    1  UNL1       -0.1720
      4 C          65.4036   90.7416   14.7511 C.ar    1  UNL1        0.0780
      5 C          64.9119   89.4977   15.4301 C.ar    1  UNL1        0.0234
      6 C          64.0130   88.5477   14.6956 C.ar    1  UNL1        0.0359
      7 BR         63.5213   87.3038   15.3746 Br      1  UNL1       -0.0490
      8 C          63.6059   88.8416   13.2822 C.ar    1  UNL1        0.0069
      9 C          64.0976   90.0854   12.6032 C.ar    1  UNL1        0.0056
     10 C          64.9964   91.0354   13.3377 C.ar    1  UNL1        0.0623
     11 C          65.4882   92.2793   12.6587 C.2     1  UNL1        0.2419
     12 N          65.2568   92.8300   11.2828 N.2     1  UNL1       -0.0302
     13 C          66.0127   94.1204   11.1669 C.2     1  UNL1        0.3765
     14 N          66.7112   94.3672   12.4712 N.2     1  UNL1       -0.0256
     15 C          66.3870   93.2293   13.3931 C.2     1  UNL1        0.2907
     16 C          66.0615   95.0082    9.9587 C.ar    1  UNL1        0.0989
     17 C          64.9410   95.9677    9.6874 C.ar    1  UNL1        0.0085
     18 C          64.9898   96.8555    8.4793 C.ar    1  UNL1        0.0003
     19 C          66.1592   96.7837    7.5426 C.ar    1  UNL1        0.0009
     20 C          67.2797   95.8242    7.8140 C.ar    1  UNL1        0.0116
     21 C          67.2309   94.9364    9.0220 C.ar    1  UNL1        0.0651
     22 CL         68.3515   93.9769    9.2935 Cl      1  UNL1       -0.0820
@<TRIPOS>BOND
     1     1     2    2
     2     2     3    1
     3     3     4    2
     4     4     5   ar
     5     5     6   ar
     6     6     7    1
     7     6     8   ar
     8     8     9   ar
     9     9    10   ar
    10    10    11    2
    11    11    12    1
    12    12    13    2
    13    13    16    1
    14    16    17   ar
    15    17    18   ar
    16    18    19   ar
    17    19    20   ar
    18    20    21   ar
    19    21    22    1
    20    13    14    1
    21    14    15    2
    22    15     2    1
    23    10     4   ar
    24    15    11    1
    25    21    16   ar
