@<TRIPOS>MOLECULE
*****
 32 35 0 0 0
SMALL
GASTEIGER

@<TRIPOS>ATOM
      1 C          64.9564   91.9283   12.7232 C.ar    1  UNL1       -0.0045
      2 C          64.8005   90.8613   13.7659 C.ar    1  UNL1       -0.0026
      3 C          63.9681   89.6472   13.4778 C.ar    1  UNL1        0.0029
      4 C          63.2916   89.5001   12.1472 C.ar    1  UNL1        0.0391
      5 C          63.4474   90.5671   11.1045 C.ar    1  UNL1        0.0029
      6 C          64.2798   91.7812   11.3925 C.ar    1  UNL1       -0.0026
      7 C          62.4591   88.2859   11.8592 C.ar    1  UNL1        0.2033
      8 N          60.9807   88.2702   11.6061 N.ar    1  UNL1       -0.0560
      9 O          60.5668   86.8489   11.3642 O.2     1  UNL1       -0.3370
     10 C          61.7895   85.9861   11.4678 C.ar    1  UNL1        0.2366
     11 N          62.9589   86.8742   11.7737 N.ar    1  UNL1       -0.1907
     12 C          61.8347   84.4967   11.2957 C.3     1  UNL1        0.0880
     13 C          62.9688   83.7082   11.8805 C.3     1  UNL1        0.0098
     14 C          62.7100   82.3636   12.4932 C.3     1  UNL1        0.0005
     15 C          62.0770   82.1106   13.8293 C.3     1  UNL1        0.0000
     16 C          62.0147   80.6267   14.0392 C.3     1  UNL1        0.0000
     17 C          62.6091   79.9626   12.8327 C.3     1  UNL1        0.0000
     18 C          63.0389   81.0361   11.8773 C.3     1  UNL1        0.0000
     19 C          66.4592   93.2932   14.3445 C.3     1  UNL1        0.0262
     20 C          65.7888   93.1425   13.0112 C.3     1  UNL1        0.0942
     21 N          65.9508   94.2059   11.9658 N.am    1  UNL1       -0.3010
     22 C          66.8045   93.9480   10.7597 C.2     1  UNL1        0.2394
     23 O          67.4961   92.6267   10.5989 O.2     1  UNL1       -0.2736
     24 H          65.4969   95.0731   12.0713 H       1  UNL1        0.1497
     25 C          66.9665   95.0115    9.7142 C.3     1  UNL1        0.1586
     26 N          68.2169   95.3017    8.9382 N.3     1  UNL1       -0.2893
     27 C          67.9297   96.4410    8.0056 C.3     1  UNL1        0.0715
     28 C          66.5019   96.8548    8.2053 C.3     1  UNL1        0.0482
     29 C          65.9066   95.9714    9.2613 C.3     1  UNL1        0.1350
     30 O          64.4985   96.0364    9.7743 O.3     1  UNL1       -0.3825
     31 H          68.4916   94.4776    8.4036 H       1  UNL1        0.1237
     32 H          64.0199   96.7450    9.3163 H       1  UNL1        0.2104
@<TRIPOS>BOND
     1    20    19    1
     2    20    21    1
     3    21    22   am
     4    22    23    2
     5    25    22    1
     6    25    26    1
     7    26    27    1
     8    27    28    1
     9    28    29    1
    10    29    30    1
    11    20     1    1
    12     1     2   ar
    13     2     3   ar
    14     3     4   ar
    15     4     7    1
    16     7     8   ar
    17     8     9   ar
    18     9    10   ar
    19    10    12    1
    20    12    13    1
    21    13    14    1
    22    14    15    1
    23    15    16    1
    24    16    17    1
    25    17    18    1
    26    10    11   ar
    27     4     5   ar
    28     5     6   ar
    29    29    25    1
    30     6     1   ar
    31    11     7   ar
    32    18    14    1
    33    21    24    1
    34    26    31    1
    35    30    32    1
@<TRIPOS>MOLECULE
*****
 32 35 0 0 0
SMALL
GASTEIGER

@<TRIPOS>ATOM
      1 C          62.3179   88.3092   11.2610 C.ar    1  UNL1       -0.0045
      2 C          62.3865   89.4681   10.3113 C.ar    1  UNL1       -0.0026
      3 C          63.1923   90.6824   10.6667 C.ar    1  UNL1        0.0029
      4 C          63.9295   90.7376   11.9719 C.ar    1  UNL1        0.0391
      5 C          63.8609   89.5786   12.9216 C.ar    1  UNL1        0.0029
      6 C          63.0551   88.3644   12.5662 C.ar    1  UNL1       -0.0026
      7 C          64.7353   91.9519   12.3274 C.ar    1  UNL1        0.2033
      8 N          65.2709   92.2874   13.6877 N.ar    1  UNL1       -0.0560
      9 O          66.0136   93.5866   13.5860 O.2     1  UNL1       -0.3370
     10 C          65.9369   94.0542   12.1627 C.ar    1  UNL1        0.2366
     11 N          65.1468   93.0438   11.3849 N.ar    1  UNL1       -0.1907
     12 C          66.5437   95.3113   11.6138 C.3     1  UNL1        0.0880
     13 C          65.6993   96.2710   10.8290 C.3     1  UNL1        0.0098
     14 C          65.9803   96.5003    9.3734 C.3     1  UNL1        0.0005
     15 C          64.9540   96.6334    8.2876 C.3     1  UNL1        0.0000
     16 C          65.6764   96.8520    6.9913 C.3     1  UNL1        0.0000
     17 C          67.1492   96.8539    7.2760 C.3     1  UNL1        0.0000
     18 C          67.3369   96.6365    8.7482 C.3     1  UNL1        0.0000
     19 C          60.5788   87.1313    9.7319 C.3     1  UNL1        0.0262
     20 C          61.5122   87.0949   10.9055 C.3     1  UNL1        0.0942
     21 N          61.6397   85.8442   11.7238 N.am    1  UNL1       -0.3010
     22 C          62.5062   84.7183   11.2427 C.2     1  UNL1        0.2394
     23 O          63.2452   84.8430    9.9433 O.2     1  UNL1       -0.2736
     24 H          61.1547   85.7624   12.5766 H       1  UNL1        0.1497
     25 C          62.6338   83.4677   12.0610 C.3     1  UNL1        0.1586
     26 N          62.8761   82.0865   11.5285 N.3     1  UNL1       -0.2893
     27 C          62.9335   81.1438   12.6939 C.3     1  UNL1        0.0715
     28 C          62.7268   81.9424   13.9467 C.3     1  UNL1        0.0482
     29 C          62.5416   83.3786   13.5555 C.3     1  UNL1        0.1350
     30 O          62.3055   84.5246   14.4942 O.3     1  UNL1       -0.3825
     31 H          63.7596   82.0618   11.0195 H       1  UNL1        0.1237
     32 H          62.2896   84.1969   15.4070 H       1  UNL1        0.2104
@<TRIPOS>BOND
     1    20    19    1
     2    20    21    1
     3    21    22   am
     4    22    23    2
     5    25    22    1
     6    25    26    1
     7    26    27    1
     8    27    28    1
     9    28    29    1
    10    29    30    1
    11    20     1    1
    12     1     2   ar
    13     2     3   ar
    14     3     4   ar
    15     4     7    1
    16     7     8   ar
    17     8     9   ar
    18     9    10   ar
    19    10    12    1
    20    12    13    1
    21    13    14    1
    22    14    15    1
    23    15    16    1
    24    16    17    1
    25    17    18    1
    26    10    11   ar
    27     4     5   ar
    28     5     6   ar
    29    29    25    1
    30     6     1   ar
    31    11     7   ar
    32    18    14    1
    33    21    24    1
    34    26    31    1
    35    30    32    1
@<TRIPOS>MOLECULE
*****
 32 35 0 0 0
SMALL
GASTEIGER

@<TRIPOS>ATOM
      1 C          63.3387   87.5786   15.8708 C.ar    1  UNL1       -0.0045
      2 C          63.2538   88.9630   16.4417 C.ar    1  UNL1       -0.0026
      3 C          63.6839   90.1412   15.6191 C.ar    1  UNL1        0.0029
      4 C          64.1991   89.9350   14.2255 C.ar    1  UNL1        0.0391
      5 C          64.2841   88.5505   13.6546 C.ar    1  UNL1        0.0029
      6 C          63.8539   87.3723   14.4772 C.ar    1  UNL1       -0.0026
      7 C          64.6293   91.1132   13.4029 C.ar    1  UNL1        0.2033
      8 N          64.2253   91.3938   11.9858 N.ar    1  UNL1       -0.0560
      9 O          64.8853   92.6717   11.5600 O.2     1  UNL1       -0.3370
     10 C          65.6972   93.1809   12.7139 C.ar    1  UNL1        0.2366
     11 N          65.5390   92.2178   13.8529 N.ar    1  UNL1       -0.1907
     12 C          66.5225   94.4335   12.7267 C.3     1  UNL1        0.0880
     13 C          66.1762   95.5691   11.8100 C.3     1  UNL1        0.0098
     14 C          66.6284   95.5434   10.3800 C.3     1  UNL1        0.0005
     15 C          66.4200   96.6323    9.3696 C.3     1  UNL1        0.0000
     16 C          67.0312   96.1860    8.0745 C.3     1  UNL1        0.0000
     17 C          67.6173   94.8213    8.2844 C.3     1  UNL1        0.0000
     18 C          67.3683   94.4242    9.7093 C.3     1  UNL1        0.0000
     19 C          62.9299   86.4833   18.1910 C.3     1  UNL1        0.0262
     20 C          62.9085   86.4003   16.6935 C.3     1  UNL1        0.0942
     21 N          62.4570   85.1391   16.0185 N.am    1  UNL1       -0.3010
     22 C          63.4550   84.2632   15.3209 C.2     1  UNL1        0.2394
     23 O          64.9046   84.6484   15.2982 O.2     1  UNL1       -0.2736
     24 H          61.5057   84.8863   16.0334 H       1  UNL1        0.1497
     25 C          63.0035   83.0020   14.6459 C.3     1  UNL1        0.1586
     26 N          61.8425   82.1473   15.0601 N.3     1  UNL1       -0.2893
     27 C          61.7552   80.9912   14.1084 C.3     1  UNL1        0.0715
     28 C          62.8622   81.1313   13.1060 C.3     1  UNL1        0.0482
     29 C          63.6337   82.3741   13.4382 C.3     1  UNL1        0.1350
     30 O          64.8261   82.8971   12.6934 O.3     1  UNL1       -0.3825
     31 H          60.9810   82.6921   15.0229 H       1  UNL1        0.1237
     32 H          65.0299   82.3049   11.9527 H       1  UNL1        0.2104
@<TRIPOS>BOND
     1    20    19    1
     2    20    21    1
     3    21    22   am
     4    22    23    2
     5    25    22    1
     6    25    26    1
     7    26    27    1
     8    27    28    1
     9    28    29    1
    10    29    30    1
    11    20     1    1
    12     1     2   ar
    13     2     3   ar
    14     3     4   ar
    15     4     7    1
    16     7     8   ar
    17     8     9   ar
    18     9    10   ar
    19    10    12    1
    20    12    13    1
    21    13    14    1
    22    14    15    1
    23    15    16    1
    24    16    17    1
    25    17    18    1
    26    10    11   ar
    27     4     5   ar
    28     5     6   ar
    29    29    25    1
    30     6     1   ar
    31    11     7   ar
    32    18    14    1
    33    21    24    1
    34    26    31    1
    35    30    32    1
@<TRIPOS>MOLECULE
*****
 32 35 0 0 0
SMALL
GASTEIGER

@<TRIPOS>ATOM
      1 C          62.3176   88.2625   11.2221 C.ar    1  UNL1       -0.0045
      2 C          62.3182   89.3934   10.2367 C.ar    1  UNL1       -0.0026
      3 C          63.0831   90.6485   10.5361 C.ar    1  UNL1        0.0029
      4 C          63.8473   90.7727   11.8208 C.ar    1  UNL1        0.0391
      5 C          63.8466   89.6419   12.8062 C.ar    1  UNL1        0.0029
      6 C          63.0818   88.3868   12.5069 C.ar    1  UNL1       -0.0026
      7 C          64.6122   92.0279   12.1202 C.ar    1  UNL1        0.2033
      8 N          65.1893   92.4127   13.4502 N.ar    1  UNL1       -0.0560
      9 O          65.8680   93.7412   13.2941 O.2     1  UNL1       -0.3370
     10 C          65.7104   94.1775   11.8676 C.ar    1  UNL1        0.2366
     11 N          64.9342   93.1186   11.1421 N.ar    1  UNL1       -0.1907
     12 C          66.2365   95.4494   11.2713 C.3     1  UNL1        0.0880
     13 C          67.1233   95.4004   10.0625 C.3     1  UNL1        0.0098
     14 C          67.7506   94.1035    9.6446 C.3     1  UNL1        0.0005
     15 C          68.1682   93.7344    8.2520 C.3     1  UNL1        0.0000
     16 C          68.7461   92.3508    8.2927 C.3     1  UNL1        0.0000
     17 C          68.6858   91.8648    9.7105 C.3     1  UNL1        0.0000
     18 C          68.0705   92.9480   10.5460 C.3     1  UNL1        0.0000
     19 C          60.6127   86.9624    9.7548 C.3     1  UNL1        0.0262
     20 C          61.5527   87.0073   10.9228 C.3     1  UNL1        0.0942
     21 N          61.7279   85.7971   11.7916 N.am    1  UNL1       -0.3010
     22 C          62.5498   84.6394   11.3079 C.2     1  UNL1        0.2394
     23 O          63.1966   84.6917    9.9555 O.2     1  UNL1       -0.2736
     24 H          61.3034   85.7628   12.6792 H       1  UNL1        0.1497
     25 C          62.7249   83.4292   12.1767 C.3     1  UNL1        0.1586
     26 N          62.4793   83.3619   13.6549 N.3     1  UNL1       -0.2893
     27 C          62.7791   81.9649   14.1116 C.3     1  UNL1        0.0715
     28 C          63.2100   81.1687   12.9156 C.3     1  UNL1        0.0482
     29 C          63.1765   82.0737   11.7198 C.3     1  UNL1        0.1350
     30 O          63.5322   81.6904   10.3139 O.3     1  UNL1       -0.3825
     31 H          61.5054   83.5899   13.8547 H       1  UNL1        0.1237
     32 H          63.7916   80.7561   10.2892 H       1  UNL1        0.2104
@<TRIPOS>BOND
     1    20    19    1
     2    20    21    1
     3    21    22   am
     4    22    23    2
     5    25    22    1
     6    25    26    1
     7    26    27    1
     8    27    28    1
     9    28    29    1
    10    29    30    1
    11    20     1    1
    12     1     2   ar
    13     2     3   ar
    14     3     4   ar
    15     4     7    1
    16     7     8   ar
    17     8     9   ar
    18     9    10   ar
    19    10    12    1
    20    12    13    1
    21    13    14    1
    22    14    15    1
    23    15    16    1
    24    16    17    1
    25    17    18    1
    26    10    11   ar
    27     4     5   ar
    28     5     6   ar
    29    29    25    1
    30     6     1   ar
    31    11     7   ar
    32    18    14    1
    33    21    24    1
    34    26    31    1
    35    30    32    1
@<TRIPOS>MOLECULE
*****
 32 35 0 0 0
SMALL
GASTEIGER

@<TRIPOS>ATOM
      1 C          62.8862   86.9157   11.9611 C.ar    1  UNL1       -0.0045
      2 C          62.6412   88.3376   11.5511 C.ar    1  UNL1       -0.0026
      3 C          63.0969   89.4616   12.4336 C.ar    1  UNL1        0.0029
      4 C          63.7976   89.1638   13.7260 C.ar    1  UNL1        0.0391
      5 C          64.0426   87.7419   14.1360 C.ar    1  UNL1        0.0029
      6 C          63.5869   86.6178   13.2535 C.ar    1  UNL1       -0.0026
      7 C          64.2532   90.2880   14.6085 C.ar    1  UNL1        0.2033
      8 N          63.4127   91.0133   15.6172 N.ar    1  UNL1       -0.0560
      9 O          64.2694   92.0578   16.2693 O.2     1  UNL1       -0.3370
     10 C          65.6394   91.9779   15.6636 C.ar    1  UNL1        0.2366
     11 N          65.6294   90.8841   14.6372 N.ar    1  UNL1       -0.1907
     12 C          66.8133   92.8404   16.0215 C.3     1  UNL1        0.0880
     13 C          67.6127   93.5053   14.9405 C.3     1  UNL1        0.0098
     14 C          67.2145   93.3402   13.5037 C.3     1  UNL1        0.0005
     15 C          66.2731   94.2257   12.7424 C.3     1  UNL1        0.0000
     16 C          66.1645   93.6934   11.3443 C.3     1  UNL1        0.0000
     17 C          67.0388   92.4788   11.2415 C.3     1  UNL1        0.0000
     18 C          67.6876   92.2606   12.5761 C.3     1  UNL1        0.0000
     19 C          62.2886   86.0081    9.6012 C.3     1  UNL1        0.0262
     20 C          62.4305   85.7915   11.0786 C.3     1  UNL1        0.0942
     21 N          62.1168   84.4508   11.6737 N.am    1  UNL1       -0.3010
     22 C          63.1440   83.3581   11.6439 C.2     1  UNL1        0.2394
     23 O          64.4849   83.6061   11.0190 O.2     1  UNL1       -0.2736
     24 H          61.2367   84.2880   12.0838 H       1  UNL1        0.1497
     25 C          62.8302   82.0174   12.2390 C.3     1  UNL1        0.1586
     26 N          62.9674   80.6926   11.5490 N.3     1  UNL1       -0.2893
     27 C          62.5462   79.6225   12.5121 C.3     1  UNL1        0.0715
     28 C          62.1487   80.2860   13.7973 C.3     1  UNL1        0.0482
     29 C          62.3243   81.7661   13.6285 C.3     1  UNL1        0.1350
     30 O          62.0432   82.8113   14.6670 O.3     1  UNL1       -0.3825
     31 H          63.9378   80.5458   11.2712 H       1  UNL1        0.1237
     32 H          61.7258   82.3842   15.4780 H       1  UNL1        0.2104
@<TRIPOS>BOND
     1    20    19    1
     2    20    21    1
     3    21    22   am
     4    22    23    2
     5    25    22    1
     6    25    26    1
     7    26    27    1
     8    27    28    1
     9    28    29    1
    10    29    30    1
    11    20     1    1
    12     1     2   ar
    13     2     3   ar
    14     3     4   ar
    15     4     7    1
    16     7     8   ar
    17     8     9   ar
    18     9    10   ar
    19    10    12    1
    20    12    13    1
    21    13    14    1
    22    14    15    1
    23    15    16    1
    24    16    17    1
    25    17    18    1
    26    10    11   ar
    27     4     5   ar
    28     5     6   ar
    29    29    25    1
    30     6     1   ar
    31    11     7   ar
    32    18    14    1
    33    21    24    1
    34    26    31    1
    35    30    32    1
@<TRIPOS>MOLECULE
*****
 32 35 0 0 0
SMALL
GASTEIGER

@<TRIPOS>ATOM
      1 C          61.4613   88.8572   10.1361 C.ar    1  UNL1       -0.0045
      2 C          62.3834   87.9662   10.9144 C.ar    1  UNL1       -0.0026
      3 C          62.9588   88.4371   12.2171 C.ar    1  UNL1        0.0029
      4 C          62.6122   89.7991   12.7415 C.ar    1  UNL1        0.0391
      5 C          61.6901   90.6900   11.9632 C.ar    1  UNL1        0.0029
      6 C          61.1146   90.2191   10.6605 C.ar    1  UNL1       -0.0026
      7 C          63.1876   90.2700   14.0443 C.ar    1  UNL1        0.2033
      8 N          62.8019   89.7778   15.4077 N.ar    1  UNL1       -0.0560
      9 O          63.6257   90.5193   16.4184 O.2     1  UNL1       -0.3370
     10 C          64.5205   91.4698   15.6795 C.ar    1  UNL1        0.2366
     11 N          64.2498   91.3157   14.2123 N.ar    1  UNL1       -0.1907
     12 C          65.5120   92.4095   16.2992 C.3     1  UNL1        0.0880
     13 C          66.8175   92.6821   15.6126 C.3     1  UNL1        0.0098
     14 C          66.8631   92.8330   14.1208 C.3     1  UNL1        0.0005
     15 C          67.4914   91.8714   13.1562 C.3     1  UNL1        0.0000
     16 C          67.3050   92.4160   11.7711 C.3     1  UNL1        0.0000
     17 C          66.5616   93.7143   11.8796 C.3     1  UNL1        0.0000
     18 C          66.2885   93.9720   13.3319 C.3     1  UNL1        0.0000
     19 C          60.8330   86.9197    8.5232 C.3     1  UNL1        0.0262
     20 C          60.8858   88.3863    8.8333 C.3     1  UNL1        0.0942
     21 N          60.3632   89.3820    7.8407 N.am    1  UNL1       -0.3010
     22 C          59.0639   89.1273    7.1359 C.2     1  UNL1        0.2394
     23 O          58.2870   87.8768    7.4238 O.2     1  UNL1       -0.2736
     24 H          60.8731   90.2028    7.6518 H       1  UNL1        0.1497
     25 C          58.5413   90.1231    6.1433 C.3     1  UNL1        0.1586
     26 N          57.0968   90.3942    5.8434 N.3     1  UNL1       -0.2893
     27 C          57.0341   91.4613    4.7910 C.3     1  UNL1        0.0715
     28 C          58.4399   91.8497    4.4405 C.3     1  UNL1        0.0482
     29 C          59.3714   91.0226    5.2762 C.3     1  UNL1        0.1350
     30 O          60.8699   91.0843    5.2496 O.3     1  UNL1       -0.3825
     31 H          56.6218   90.7127    6.6880 H       1  UNL1        0.1237
     32 H          61.1547   91.7482    4.6023 H       1  UNL1        0.2104
@<TRIPOS>BOND
     1    20    19    1
     2    20    21    1
     3    21    22   am
     4    22    23    2
     5    25    22    1
     6    25    26    1
     7    26    27    1
     8    27    28    1
     9    28    29    1
    10    29    30    1
    11    20     1    1
    12     1     2   ar
    13     2     3   ar
    14     3     4   ar
    15     4     7    1
    16     7     8   ar
    17     8     9   ar
    18     9    10   ar
    19    10    12    1
    20    12    13    1
    21    13    14    1
    22    14    15    1
    23    15    16    1
    24    16    17    1
    25    17    18    1
    26    10    11   ar
    27     4     5   ar
    28     5     6   ar
    29    29    25    1
    30     6     1   ar
    31    11     7   ar
    32    18    14    1
    33    21    24    1
    34    26    31    1
    35    30    32    1
@<TRIPOS>MOLECULE
*****
 32 35 0 0 0
SMALL
GASTEIGER

@<TRIPOS>ATOM
      1 C          59.6844   89.0710    7.2166 C.ar    1  UNL1       -0.0045
      2 C          59.5860   87.5808    7.0778 C.ar    1  UNL1       -0.0026
      3 C          60.2106   86.6886    8.1092 C.ar    1  UNL1        0.0029
      4 C          60.9337   87.2867    9.2795 C.ar    1  UNL1        0.0391
      5 C          61.0321   88.7770    9.4183 C.ar    1  UNL1        0.0029
      6 C          60.4074   89.6692    8.3869 C.ar    1  UNL1       -0.0026
      7 C          61.5583   86.3945   10.3109 C.ar    1  UNL1        0.2033
      8 N          61.2322   86.3764   11.7749 N.ar    1  UNL1       -0.0560
      9 O          62.0910   85.3345   12.4283 O.2     1  UNL1       -0.3370
     10 C          62.9479   84.7086   11.3680 C.ar    1  UNL1        0.2366
     11 N          62.6186   85.3638   10.0594 N.ar    1  UNL1       -0.1907
     12 C          63.9568   83.6190   11.5793 C.3     1  UNL1        0.0880
     13 C          64.0408   82.9212   12.9044 C.3     1  UNL1        0.0098
     14 C          62.9998   81.9116   13.2878 C.3     1  UNL1        0.0005
     15 C          62.9990   80.4596   12.9114 C.3     1  UNL1        0.0000
     16 C          61.7755   79.8273   13.5058 C.3     1  UNL1        0.0000
     17 C          61.0201   80.8886   14.2495 C.3     1  UNL1        0.0000
     18 C          61.7768   82.1767   14.1148 C.3     1  UNL1        0.0000
     19 C          57.5691   90.1218    6.1343 C.3     1  UNL1        0.0262
     20 C          59.0598   89.9633    6.1851 C.3     1  UNL1        0.0942
     21 N          59.9260   90.6970    5.2046 N.am    1  UNL1       -0.3010
     22 C          59.3672   91.8524    4.4282 C.2     1  UNL1        0.2394
     23 O          57.9422   92.2741    4.6323 O.2     1  UNL1       -0.2736
     24 H          60.8612   90.4202    5.0706 H       1  UNL1        0.1497
     25 C          60.2333   92.5861    3.4477 C.3     1  UNL1        0.1586
     26 N          59.8036   93.7255    2.5719 N.3     1  UNL1       -0.2893
     27 C          60.9860   94.1529    1.7537 C.3     1  UNL1        0.0715
     28 C          62.1465   93.2775    2.1238 C.3     1  UNL1        0.0482
     29 C          61.6813   92.3092    3.1707 C.3     1  UNL1        0.1350
     30 O          62.5174   91.2499    3.8257 O.3     1  UNL1       -0.3825
     31 H          59.4824   94.5032    3.1485 H       1  UNL1        0.1237
     32 H          63.4184   91.2821    3.4681 H       1  UNL1        0.2104
@<TRIPOS>BOND
     1    20    19    1
     2    20    21    1
     3    21    22   am
     4    22    23    2
     5    25    22    1
     6    25    26    1
     7    26    27    1
     8    27    28    1
     9    28    29    1
    10    29    30    1
    11    20     1    1
    12     1     2   ar
    13     2     3   ar
    14     3     4   ar
    15     4     7    1
    16     7     8   ar
    17     8     9   ar
    18     9    10   ar
    19    10    12    1
    20    12    13    1
    21    13    14    1
    22    14    15    1
    23    15    16    1
    24    16    17    1
    25    17    18    1
    26    10    11   ar
    27     4     5   ar
    28     5     6   ar
    29    29    25    1
    30     6     1   ar
    31    11     7   ar
    32    18    14    1
    33    21    24    1
    34    26    31    1
    35    30    32    1
@<TRIPOS>MOLECULE
*****
 32 35 0 0 0
SMALL
GASTEIGER

@<TRIPOS>ATOM
      1 C          63.2021   93.6929    1.0419 C.ar    1  UNL1       -0.0045
      2 C          61.7844   94.1779    1.1119 C.ar    1  UNL1       -0.0026
      3 C          60.8331   93.5737    2.1018 C.ar    1  UNL1        0.0029
      4 C          61.2995   92.4845    3.0217 C.ar    1  UNL1        0.0391
      5 C          62.7172   91.9996    2.9517 C.ar    1  UNL1        0.0029
      6 C          63.6685   92.6038    1.9618 C.ar    1  UNL1       -0.0026
      7 C          60.3481   91.8803    4.0117 C.ar    1  UNL1        0.2033
      8 N          58.9630   92.3696    4.3151 N.ar    1  UNL1       -0.0560
      9 O          58.3737   91.4725    5.3629 O.2     1  UNL1       -0.3370
     10 C          59.3946   90.4287    5.7070 C.ar    1  UNL1        0.2366
     11 N          60.6148   90.6808    4.8719 N.ar    1  UNL1       -0.1907
     12 C          59.2250   89.3264    6.7101 C.3     1  UNL1        0.0880
     13 C          59.8767   89.4313    8.0570 C.3     1  UNL1        0.0098
     14 C          60.5315   88.2285    8.6690 C.3     1  UNL1        0.0005
     15 C          60.2046   86.7964    8.3653 C.3     1  UNL1        0.0000
     16 C          61.0993   85.9295    9.2007 C.3     1  UNL1        0.0000
     17 C          61.9792   86.8258   10.0208 C.3     1  UNL1        0.0000
     18 C          61.6283   88.2466    9.6921 C.3     1  UNL1        0.0000
     19 C          65.1170   95.3599    0.4902 C.3     1  UNL1        0.0262
     20 C          64.1535   94.2971    0.0520 C.3     1  UNL1        0.0942
     21 N          64.1413   93.8385   -1.3761 N.am    1  UNL1       -0.3010
     22 C          63.3051   94.5626   -2.3892 C.2     1  UNL1        0.2394
     23 O          62.4811   95.7454   -1.9743 O.2     1  UNL1       -0.2736
     24 H          64.6820   93.0622   -1.6485 H       1  UNL1        0.1497
     25 C          63.2929   94.1040   -3.8174 C.3     1  UNL1        0.1586
     26 N          62.5621   94.7637   -4.9490 N.3     1  UNL1       -0.2893
     27 C          62.8268   93.9726   -6.1957 C.3     1  UNL1        0.0715
     28 C          63.7212   92.8239   -5.8344 C.3     1  UNL1        0.0482
     29 C          64.0093   92.9051   -4.3646 C.3     1  UNL1        0.1350
     30 O          64.8637   91.9543   -3.5797 O.3     1  UNL1       -0.3825
     31 H          62.8982   95.7194   -5.0677 H       1  UNL1        0.1237
     32 H          65.2092   91.2670   -4.1706 H       1  UNL1        0.2104
@<TRIPOS>BOND
     1    20    19    1
     2    20    21    1
     3    21    22   am
     4    22    23    2
     5    25    22    1
     6    25    26    1
     7    26    27    1
     8    27    28    1
     9    28    29    1
    10    29    30    1
    11    20     1    1
    12     1     2   ar
    13     2     3   ar
    14     3     4   ar
    15     4     7    1
    16     7     8   ar
    17     8     9   ar
    18     9    10   ar
    19    10    12    1
    20    12    13    1
    21    13    14    1
    22    14    15    1
    23    15    16    1
    24    16    17    1
    25    17    18    1
    26    10    11   ar
    27     4     5   ar
    28     5     6   ar
    29    29    25    1
    30     6     1   ar
    31    11     7   ar
    32    18    14    1
    33    21    24    1
    34    26    31    1
    35    30    32    1
@<TRIPOS>MOLECULE
*****
 32 35 0 0 0
SMALL
GASTEIGER

@<TRIPOS>ATOM
      1 C          63.5608   85.5024   14.0201 C.ar    1  UNL1       -0.0045
      2 C          63.0252   86.0786   12.7429 C.ar    1  UNL1       -0.0026
      3 C          63.2022   87.5383   12.4465 C.ar    1  UNL1        0.0029
      4 C          63.9148   88.4218   13.4271 C.ar    1  UNL1        0.0391
      5 C          64.4503   87.8456   14.7043 C.ar    1  UNL1        0.0029
      6 C          64.2733   86.3859   15.0007 C.ar    1  UNL1       -0.0026
      7 C          64.0918   89.8816   13.1306 C.ar    1  UNL1        0.2033
      8 N          63.1009   90.7661   12.4336 N.ar    1  UNL1       -0.0560
      9 O          63.6873   92.1443   12.3512 O.2     1  UNL1       -0.3370
     10 C          65.0407   92.1114   12.9973 C.ar    1  UNL1        0.2366
     11 N          65.2906   90.7130   13.4790 N.ar    1  UNL1       -0.1907
     12 C          65.9794   93.2731   13.1371 C.3     1  UNL1        0.0880
     13 C          66.2231   94.1849   11.9713 C.3     1  UNL1        0.0098
     14 C          67.0258   93.7048   10.7986 C.3     1  UNL1        0.0005
     15 C          67.6129   92.3343   10.6338 C.3     1  UNL1        0.0000
     16 C          68.3323   92.2934    9.3182 C.3     1  UNL1        0.0000
     17 C          68.1898   93.6386    8.6700 C.3     1  UNL1        0.0000
     18 C          67.3824   94.5108    9.5849 C.3     1  UNL1        0.0000
     19 C          63.0634   83.5942   15.7116 C.3     1  UNL1        0.0262
     20 C          63.3838   84.0427   14.3166 C.3     1  UNL1        0.0942
     21 N          63.5273   83.0315   13.2181 N.am    1  UNL1       -0.3010
     22 C          62.5880   81.8642   13.1458 C.2     1  UNL1        0.2394
     23 O          61.5052   81.7081   14.1721 O.2     1  UNL1       -0.2736
     24 H          64.2379   83.1339   12.5445 H       1  UNL1        0.1497
     25 C          62.7315   80.8530   12.0472 C.3     1  UNL1        0.1586
     26 N          62.4141   79.3904   12.1482 N.3     1  UNL1       -0.2893
     27 C          62.7040   78.7603   10.8182 C.3     1  UNL1        0.0715
     28 C          63.2005   79.8334    9.8952 C.3     1  UNL1        0.0482
     29 C          63.2175   81.1267   10.6548 C.3     1  UNL1        0.1350
     30 O          63.6455   82.4598   10.1165 O.3     1  UNL1       -0.3825
     31 H          61.4295   79.2653   12.3832 H       1  UNL1        0.1237
     32 H          63.9144   82.3630    9.1895 H       1  UNL1        0.2104
@<TRIPOS>BOND
     1    20    19    1
     2    20    21    1
     3    21    22   am
     4    22    23    2
     5    25    22    1
     6    25    26    1
     7    26    27    1
     8    27    28    1
     9    28    29    1
    10    29    30    1
    11    20     1    1
    12     1     2   ar
    13     2     3   ar
    14     3     4   ar
    15     4     7    1
    16     7     8   ar
    17     8     9   ar
    18     9    10   ar
    19    10    12    1
    20    12    13    1
    21    13    14    1
    22    14    15    1
    23    15    16    1
    24    16    17    1
    25    17    18    1
    26    10    11   ar
    27     4     5   ar
    28     5     6   ar
    29    29    25    1
    30     6     1   ar
    31    11     7   ar
    32    18    14    1
    33    21    24    1
    34    26    31    1
    35    30    32    1
