@<TRIPOS>MOLECULE
*****
 30 33 0 0 0
SMALL
GASTEIGER

@<TRIPOS>ATOM
      1 C          62.6036   84.7944   12.6020 C.ar    1  UNL1        0.1355
      2 C          62.0142   85.2560   11.3022 C.ar    1  UNL1        0.0996
      3 N          62.2611   86.7303   11.1789 N.ar    1  UNL1       -0.3063
      4 C          63.0030   87.1800   12.4025 C.ar    1  UNL1        0.1470
      5 N          63.2147   85.9835   13.2821 N.ar    1  UNL1       -0.2236
      6 C          63.4801   88.5582   12.7533 C.ar    1  UNL1        0.0683
      7 C          64.1835   88.5740   14.0780 C.ar    1  UNL1        0.0091
      8 C          64.7400   89.8587   14.6164 C.ar    1  UNL1        0.0372
      9 C          64.5929   91.1276   13.8301 C.ar    1  UNL1        0.1421
     10 C          63.8895   91.1118   12.5054 C.ar    1  UNL1        0.0739
     11 C          63.3330   89.8271   11.9670 C.ar    1  UNL1        0.1445
     12 O          62.6726   90.0312   10.6358 O.3     1  UNL1       -0.4732
     13 C          61.9961   89.0169    9.7620 C.3     1  UNL1        0.2298
     14 C          61.8130   87.5478   10.0037 C.3     1  UNL1        0.1547
     15 N          63.0660   82.1692   12.4028 N.ar    1  UNL1       -0.2333
     16 N          62.8605   80.9850   13.3001 N.ar    1  UNL1       -0.1453
     17 C          62.2525   81.4740   14.5812 C.ar    1  UNL1        0.2209
     18 N          62.0823   82.9605   14.4756 N.ar    1  UNL1       -0.2021
     19 C          62.5850   83.3902   13.1293 C.ar    1  UNL1        0.1804
     20 C          63.2169   81.0824   10.0477 C.3     1  UNL1        0.0264
     21 C          63.6500   82.1380   11.0214 C.3     1  UNL1        0.1070
     22 C          64.6670   83.1625   10.6138 C.3     1  UNL1        0.0264
     23 O          65.1494   92.4123   14.3685 O.3     1  UNL1       -0.4699
     24 C          66.6091   92.5180   14.6972 C.3     1  UNL1        0.2409
     25 C          67.0438   92.7556   16.1131 C.3     1  UNL1        0.0574
     26 C          67.6342   92.3861   13.6101 C.2     1  UNL1        0.2596
     27 N          69.0339   91.9643   13.9463 N.am    1  UNL1       -0.3259
     28 O          67.2596   92.6758   12.1869 O.2     1  UNL1       -0.2715
     29 H          69.2798   91.7741   14.8804 H       1  UNL1        0.1451
     30 H          69.7067   91.8777   13.2328 H       1  UNL1        0.1451
@<TRIPOS>BOND
     1    20    21    1
     2    21    22    1
     3    21    15    1
     4    15    16   ar
     5    16    17   ar
     6    17    18   ar
     7    18    19   ar
     8    19     1    1
     9     1     2   ar
    10     2     3   ar
    11     3     4   ar
    12     4     5   ar
    13     4     6    1
    14     6     7   ar
    15     7     8   ar
    16     8     9   ar
    17     9    23    1
    18    23    24    1
    19    24    25    1
    20    24    26    1
    21    26    27   am
    22    26    28    2
    23     9    10   ar
    24    10    11   ar
    25    11    12    1
    26    12    13    1
    27    13    14    1
    28    19    15   ar
    29     5     1   ar
    30    11     6   ar
    31    14     3    1
    32    27    29    1
    33    27    30    1
@<TRIPOS>MOLECULE
*****
 30 33 0 0 0
SMALL
GASTEIGER

@<TRIPOS>ATOM
      1 C          62.6722   84.9648   11.9709 C.ar    1  UNL1        0.1355
      2 C          61.9655   85.5823   10.8008 C.ar    1  UNL1        0.0996
      3 N          62.1432   87.0693   10.8841 N.ar    1  UNL1       -0.3063
      4 C          62.9599   87.3709   12.1056 C.ar    1  UNL1        0.1470
      5 N          63.2868   86.0702   12.7773 N.ar    1  UNL1       -0.2236
      6 C          63.4078   88.7048   12.6254 C.ar    1  UNL1        0.0683
      7 C          64.2112   88.5609   13.8838 C.ar    1  UNL1        0.0091
      8 C          64.7565   89.7789   14.5688 C.ar    1  UNL1        0.0372
      9 C          64.4983   91.1407   13.9954 C.ar    1  UNL1        0.1421
     10 C          63.6949   91.2846   12.7370 C.ar    1  UNL1        0.0739
     11 C          63.1496   90.0666   12.0519 C.ar    1  UNL1        0.1445
     12 O          62.3798   90.4308   10.8171 O.3     1  UNL1       -0.4732
     13 C          61.6780   89.5233    9.8507 C.3     1  UNL1        0.2298
     14 C          61.5728   88.0273    9.8806 C.3     1  UNL1        0.1547
     15 N          63.0067   82.8951   13.6292 N.ar    1  UNL1       -0.2333
     16 N          63.0010   81.4029   13.4776 N.ar    1  UNL1       -0.1453
     17 C          62.7415   81.0845   12.0349 C.ar    1  UNL1        0.2209
     18 N          62.5868   82.3801   11.2949 N.ar    1  UNL1       -0.2021
     19 C          62.7507   83.4991   12.2802 C.ar    1  UNL1        0.1804
     20 C          62.0561   84.1509   15.6955 C.3     1  UNL1        0.0264
     21 C          63.2293   83.6509   14.9057 C.3     1  UNL1        0.1070
     22 C          64.6249   83.9065   15.3923 C.3     1  UNL1        0.0264
     23 O          65.0437   92.3586   14.6805 O.3     1  UNL1       -0.4699
     24 C          66.5262   92.5699   14.7670 C.3     1  UNL1        0.2409
     25 C          67.1747   92.7980   16.1003 C.3     1  UNL1        0.0574
     26 C          67.3602   92.5530   13.5204 C.2     1  UNL1        0.2596
     27 N          68.6191   91.7387   13.4712 N.am    1  UNL1       -0.3259
     28 O          66.9355   93.3504   12.3230 O.2     1  UNL1       -0.2715
     29 H          68.8978   91.2154   14.2571 H       1  UNL1        0.1451
     30 H          69.1665   91.7276   12.6530 H       1  UNL1        0.1451
@<TRIPOS>BOND
     1    20    21    1
     2    21    22    1
     3    21    15    1
     4    15    16   ar
     5    16    17   ar
     6    17    18   ar
     7    18    19   ar
     8    19     1    1
     9     1     2   ar
    10     2     3   ar
    11     3     4   ar
    12     4     5   ar
    13     4     6    1
    14     6     7   ar
    15     7     8   ar
    16     8     9   ar
    17     9    23    1
    18    23    24    1
    19    24    25    1
    20    24    26    1
    21    26    27   am
    22    26    28    2
    23     9    10   ar
    24    10    11   ar
    25    11    12    1
    26    12    13    1
    27    13    14    1
    28    19    15   ar
    29     5     1   ar
    30    11     6   ar
    31    14     3    1
    32    27    29    1
    33    27    30    1
@<TRIPOS>MOLECULE
*****
 30 33 0 0 0
SMALL
GASTEIGER

@<TRIPOS>ATOM
      1 C          61.4382   86.7368   10.2973 C.ar    1  UNL1        0.1355
      2 C          61.9168   85.6134   11.1684 C.ar    1  UNL1        0.0996
      3 N          62.7579   86.2011   12.2624 N.ar    1  UNL1       -0.3063
      4 C          62.7992   87.6878   12.0676 C.ar    1  UNL1        0.1470
      5 N          61.9836   88.0189   10.8530 N.ar    1  UNL1       -0.2236
      6 C          63.5059   88.7203   12.8950 C.ar    1  UNL1        0.0683
      7 C          63.2886   90.1011   12.3510 C.ar    1  UNL1        0.0091
      8 C          63.9113   91.2827   13.0337 C.ar    1  UNL1        0.0372
      9 C          64.7513   91.0834   14.2603 C.ar    1  UNL1        0.1421
     10 C          64.9686   89.7026   14.8044 C.ar    1  UNL1        0.0739
     11 C          64.3459   88.5210   14.1217 C.ar    1  UNL1        0.1445
     12 O          64.6866   87.2400   14.8239 O.3     1  UNL1       -0.4732
     13 C          64.2715   85.8420   14.4729 C.3     1  UNL1        0.2298
     14 C          63.4131   85.3796   13.3329 C.3     1  UNL1        0.1547
     15 N          60.9266   85.8855    7.8156 N.ar    1  UNL1       -0.2333
     16 N          59.7654   86.0006    6.8731 N.ar    1  UNL1       -0.1453
     17 C          58.6883   86.7880    7.5585 C.ar    1  UNL1        0.2209
     18 N          59.1839   87.1596    8.9247 N.ar    1  UNL1       -0.2021
     19 C          60.5672   86.6019    9.0836 C.ar    1  UNL1        0.1804
     20 C          62.3879   84.3892    6.2742 C.3     1  UNL1        0.0264
     21 C          62.2202   85.1783    7.5388 C.3     1  UNL1        0.1070
     22 C          63.3460   85.2603    8.5266 C.3     1  UNL1        0.0264
     23 O          65.3740   92.2651   14.9430 O.3     1  UNL1       -0.4699
     24 C          66.8501   92.5055   14.8284 C.3     1  UNL1        0.2409
     25 C          67.6661   92.7627   16.0605 C.3     1  UNL1        0.0574
     26 C          67.5104   92.4887   13.4816 C.2     1  UNL1        0.2596
     27 N          68.7513   91.6743   13.2648 N.am    1  UNL1       -0.3259
     28 O          66.9299   93.2864   12.3517 O.2     1  UNL1       -0.2715
     29 H          69.1323   91.1507   14.0064 H       1  UNL1        0.1451
     30 H          69.1846   91.6632   12.3808 H       1  UNL1        0.1451
@<TRIPOS>BOND
     1    20    21    1
     2    21    22    1
     3    21    15    1
     4    15    16   ar
     5    16    17   ar
     6    17    18   ar
     7    18    19   ar
     8    19     1    1
     9     1     2   ar
    10     2     3   ar
    11     3     4   ar
    12     4     5   ar
    13     4     6    1
    14     6     7   ar
    15     7     8   ar
    16     8     9   ar
    17     9    23    1
    18    23    24    1
    19    24    25    1
    20    24    26    1
    21    26    27   am
    22    26    28    2
    23     9    10   ar
    24    10    11   ar
    25    11    12    1
    26    12    13    1
    27    13    14    1
    28    19    15   ar
    29     5     1   ar
    30    11     6   ar
    31    14     3    1
    32    27    29    1
    33    27    30    1
@<TRIPOS>MOLECULE
*****
 30 33 0 0 0
SMALL
GASTEIGER

@<TRIPOS>ATOM
      1 C          62.5886   84.9093   12.0940 C.ar    1  UNL1        0.1355
      2 C          63.1807   86.1636   12.6650 C.ar    1  UNL1        0.0996
      3 N          62.6737   87.3235   11.8603 N.ar    1  UNL1       -0.3063
      4 C          61.7683   86.7861   10.7920 C.ar    1  UNL1        0.1470
      5 N          61.7156   85.2939   10.9364 N.ar    1  UNL1       -0.2236
      6 C          61.0169   87.5410    9.7357 C.ar    1  UNL1        0.0683
      7 C          60.2222   86.6164    8.8620 C.ar    1  UNL1        0.0091
      8 C          59.3960   87.1708    7.7395 C.ar    1  UNL1        0.0372
      9 C          59.3646   88.6497    7.4907 C.ar    1  UNL1        0.1421
     10 C          60.1593   89.5742    8.3645 C.ar    1  UNL1        0.0739
     11 C          60.9855   89.0199    9.4870 C.ar    1  UNL1        0.1445
     12 O          61.6977   90.1090   10.2330 O.3     1  UNL1       -0.4732
     13 C          62.6171   89.9884   11.4120 C.3     1  UNL1        0.2298
     14 C          63.0515   88.7487   12.1362 C.3     1  UNL1        0.1547
     15 N          63.2587   83.1363   13.9789 N.ar    1  UNL1       -0.2333
     16 N          63.3748   81.6419   14.0361 N.ar    1  UNL1       -0.1453
     17 C          63.0153   81.0970   12.6856 C.ar    1  UNL1        0.2209
     18 N          62.6771   82.2546   11.7937 N.ar    1  UNL1       -0.2021
     19 C          62.8274   83.5150   12.5930 C.ar    1  UNL1        0.1804
     20 C          64.9060   84.6386   15.3128 C.3     1  UNL1        0.0264
     21 C          63.5267   84.0854   15.1091 C.3     1  UNL1        0.1070
     22 C          62.4154   84.4813   16.0355 C.3     1  UNL1        0.0264
     23 O          58.5383   89.2040    6.3681 O.3     1  UNL1       -0.4699
     24 C          59.0251   90.3938    5.5952 C.3     1  UNL1        0.2409
     25 C          60.4691   90.4926    5.2012 C.3     1  UNL1        0.0574
     26 C          58.0679   91.4847    5.2162 C.2     1  UNL1        0.2596
     27 N          58.5870   92.8412    4.8414 N.am    1  UNL1       -0.3259
     28 O          56.5916   91.2192    5.2120 O.2     1  UNL1       -0.2715
     29 H          59.5560   93.0155    4.8441 H       1  UNL1        0.1451
     30 H          57.9588   93.5572    4.5926 H       1  UNL1        0.1451
@<TRIPOS>BOND
     1    20    21    1
     2    21    22    1
     3    21    15    1
     4    15    16   ar
     5    16    17   ar
     6    17    18   ar
     7    18    19   ar
     8    19     1    1
     9     1     2   ar
    10     2     3   ar
    11     3     4   ar
    12     4     5   ar
    13     4     6    1
    14     6     7   ar
    15     7     8   ar
    16     8     9   ar
    17     9    23    1
    18    23    24    1
    19    24    25    1
    20    24    26    1
    21    26    27   am
    22    26    28    2
    23     9    10   ar
    24    10    11   ar
    25    11    12    1
    26    12    13    1
    27    13    14    1
    28    19    15   ar
    29     5     1   ar
    30    11     6   ar
    31    14     3    1
    32    27    29    1
    33    27    30    1
@<TRIPOS>MOLECULE
*****
 30 33 0 0 0
SMALL
GASTEIGER

@<TRIPOS>ATOM
      1 C          64.3388   89.9086   14.2213 C.ar    1  UNL1        0.1355
      2 C          63.7989   90.0030   15.6175 C.ar    1  UNL1        0.0996
      3 N          63.4950   88.6130   16.0920 N.ar    1  UNL1       -0.3063
      4 C          63.8470   87.6593   14.9890 C.ar    1  UNL1        0.1470
      5 N          64.3685   88.4601   13.8327 N.ar    1  UNL1       -0.2236
      6 C          63.7272   86.1642   14.9715 C.ar    1  UNL1        0.0683
      7 C          64.1914   85.5925   13.6647 C.ar    1  UNL1        0.0091
      8 C          64.1543   84.1100   13.4393 C.ar    1  UNL1        0.0372
      9 C          63.6529   83.1993   14.5206 C.ar    1  UNL1        0.1421
     10 C          63.1887   83.7710   15.8273 C.ar    1  UNL1        0.0739
     11 C          63.2258   85.2534   16.0527 C.ar    1  UNL1        0.1445
     12 O          62.7204   85.6129   17.4185 O.3     1  UNL1       -0.4732
     13 C          62.5915   86.9718   18.0404 C.3     1  UNL1        0.2298
     14 C          62.9362   88.3070   17.4500 C.3     1  UNL1        0.1547
     15 N          65.8063   92.0865   13.7230 N.ar    1  UNL1       -0.2333
     16 N          65.9216   93.0486   12.5780 N.ar    1  UNL1       -0.1453
     17 C          64.9593   92.6172   11.5113 C.ar    1  UNL1        0.2209
     18 N          64.2492   91.3885   11.9971 N.ar    1  UNL1       -0.2021
     19 C          64.7727   91.0604   13.3640 C.ar    1  UNL1        0.1804
     20 C          67.9943   91.6220   15.0448 C.3     1  UNL1        0.0264
     21 C          66.5875   92.1408   15.0024 C.3     1  UNL1        0.1070
     22 C          65.9618   92.7139   16.2394 C.3     1  UNL1        0.0264
     23 O          63.6158   81.7167   14.2950 O.3     1  UNL1       -0.4699
     24 C          62.5238   81.1117   13.4636 C.3     1  UNL1        0.2409
     25 C          61.1477   80.9472   14.0376 C.3     1  UNL1        0.0574
     26 C          62.8077   80.6711   12.0582 C.2     1  UNL1        0.2596
     27 N          63.2403   81.6745   11.0305 N.am    1  UNL1       -0.3259
     28 O          62.6592   79.2271   11.6804 O.2     1  UNL1       -0.2715
     29 H          63.3378   82.6223   11.2785 H       1  UNL1        0.1451
     30 H          63.4267   81.3854   10.1081 H       1  UNL1        0.1451
@<TRIPOS>BOND
     1    20    21    1
     2    21    22    1
     3    21    15    1
     4    15    16   ar
     5    16    17   ar
     6    17    18   ar
     7    18    19   ar
     8    19     1    1
     9     1     2   ar
    10     2     3   ar
    11     3     4   ar
    12     4     5   ar
    13     4     6    1
    14     6     7   ar
    15     7     8   ar
    16     8     9   ar
    17     9    23    1
    18    23    24    1
    19    24    25    1
    20    24    26    1
    21    26    27   am
    22    26    28    2
    23     9    10   ar
    24    10    11   ar
    25    11    12    1
    26    12    13    1
    27    13    14    1
    28    19    15   ar
    29     5     1   ar
    30    11     6   ar
    31    14     3    1
    32    27    29    1
    33    27    30    1
@<TRIPOS>MOLECULE
*****
 30 33 0 0 0
SMALL
GASTEIGER

@<TRIPOS>ATOM
      1 C          64.4184   89.8504   14.4167 C.ar    1  UNL1        0.1355
      2 C          63.8078   89.9040   15.7857 C.ar    1  UNL1        0.0996
      3 N          63.4773   88.5012   16.2011 N.ar    1  UNL1       -0.3063
      4 C          63.8838   87.5804   15.0889 C.ar    1  UNL1        0.1470
      5 N          64.4654   88.4143   13.9860 N.ar    1  UNL1       -0.2236
      6 C          63.7623   86.0870   15.0194 C.ar    1  UNL1        0.0683
      7 C          64.2920   85.5538   13.7213 C.ar    1  UNL1        0.0091
      8 C          64.2638   84.0791   13.4488 C.ar    1  UNL1        0.0372
      9 C          63.7058   83.1375   14.4745 C.ar    1  UNL1        0.1421
     10 C          63.1761   83.6706   15.7726 C.ar    1  UNL1        0.0739
     11 C          63.2044   85.1453   16.0450 C.ar    1  UNL1        0.1445
     12 O          62.6301   85.4646   17.3935 O.3     1  UNL1       -0.4732
     13 C          62.4719   86.8043   18.0494 C.3     1  UNL1        0.2298
     14 C          62.8490   88.1557   17.5186 C.3     1  UNL1        0.1547
     15 N          64.3233   91.5021   12.3171 N.ar    1  UNL1       -0.2333
     16 N          65.1066   92.7029   11.8759 N.ar    1  UNL1       -0.1453
     17 C          66.1653   92.9694   12.9046 C.ar    1  UNL1        0.2209
     18 N          66.0363   91.9332   13.9816 N.ar    1  UNL1       -0.2021
     19 C          64.8980   91.0264   13.6185 C.ar    1  UNL1        0.1804
     20 C          63.0718   91.0113   10.0939 C.3     1  UNL1        0.0264
     21 C          63.1683   90.8852   11.5854 C.3     1  UNL1        0.1070
     22 C          62.1097   90.1423   12.3454 C.3     1  UNL1        0.0264
     23 O          63.6776   81.6626   14.2020 O.3     1  UNL1       -0.4699
     24 C          62.5804   81.0755   13.3646 C.3     1  UNL1        0.2409
     25 C          61.2121   80.8835   13.9485 C.3     1  UNL1        0.0574
     26 C          62.8515   80.6804   11.9432 C.2     1  UNL1        0.2596
     27 N          63.3216   81.7072   10.9559 N.am    1  UNL1       -0.3259
     28 O          62.6523   79.2585   11.5090 O.2     1  UNL1       -0.2715
     29 H          63.4523   82.6404   11.2409 H       1  UNL1        0.1451
     30 H          63.4995   81.4479   10.0230 H       1  UNL1        0.1451
@<TRIPOS>BOND
     1    20    21    1
     2    21    22    1
     3    21    15    1
     4    15    16   ar
     5    16    17   ar
     6    17    18   ar
     7    18    19   ar
     8    19     1    1
     9     1     2   ar
    10     2     3   ar
    11     3     4   ar
    12     4     5   ar
    13     4     6    1
    14     6     7   ar
    15     7     8   ar
    16     8     9   ar
    17     9    23    1
    18    23    24    1
    19    24    25    1
    20    24    26    1
    21    26    27   am
    22    26    28    2
    23     9    10   ar
    24    10    11   ar
    25    11    12    1
    26    12    13    1
    27    13    14    1
    28    19    15   ar
    29     5     1   ar
    30    11     6   ar
    31    14     3    1
    32    27    29    1
    33    27    30    1
@<TRIPOS>MOLECULE
*****
 30 33 0 0 0
SMALL
GASTEIGER

@<TRIPOS>ATOM
      1 C          62.5381   85.0662   12.3958 C.ar    1  UNL1        0.1355
      2 C          63.1986   86.3332   12.8522 C.ar    1  UNL1        0.0996
      3 N          62.7335   87.4458   11.9602 N.ar    1  UNL1       -0.3063
      4 C          61.7854   86.8665   10.9525 C.ar    1  UNL1        0.1470
      5 N          61.6646   85.3957   11.2217 N.ar    1  UNL1       -0.2236
      6 C          61.0528   87.5670    9.8468 C.ar    1  UNL1        0.0683
      7 C          60.2002   86.6131    9.0639 C.ar    1  UNL1        0.0091
      8 C          59.3821   87.1121    7.9099 C.ar    1  UNL1        0.0372
      9 C          59.4166   88.5651    7.5390 C.ar    1  UNL1        0.1421
     10 C          60.2691   89.5190    8.3219 C.ar    1  UNL1        0.0739
     11 C          61.0872   89.0200    9.4759 C.ar    1  UNL1        0.1445
     12 O          61.8629   90.1312   10.1189 O.3     1  UNL1       -0.4732
     13 C          62.7956   90.0641   11.2917 C.3     1  UNL1        0.2298
     14 C          63.1831   88.8689   12.1112 C.3     1  UNL1        0.1547
     15 N          63.2262   82.4849   12.3014 N.ar    1  UNL1       -0.2333
     16 N          63.2454   81.3556   13.2884 N.ar    1  UNL1       -0.1453
     17 C          62.7501   81.8807   14.6033 C.ar    1  UNL1        0.2209
     18 N          62.4249   83.3346   14.4290 N.ar    1  UNL1       -0.2021
     19 C          62.7191   83.7081   13.0063 C.ar    1  UNL1        0.1804
     20 C          63.3134   81.1852   10.0535 C.3     1  UNL1        0.0264
     21 C          63.6413   82.4052   10.8621 C.3     1  UNL1        0.1070
     22 C          64.3842   83.5456   10.2316 C.3     1  UNL1        0.0264
     23 O          58.5984   89.0641    6.3850 O.3     1  UNL1       -0.4699
     24 C          59.0282   90.2904    5.6356 C.3     1  UNL1        0.2409
     25 C          60.4660   90.4652    5.2451 C.3     1  UNL1        0.0574
     26 C          58.0204   91.3417    5.2767 C.2     1  UNL1        0.2596
     27 N          58.4764   92.7199    4.8989 N.am    1  UNL1       -0.3259
     28 O          56.5565   91.0150    5.2955 O.2     1  UNL1       -0.2715
     29 H          59.4372   92.9344    4.8865 H       1  UNL1        0.1451
     30 H          57.8149   93.4100    4.6633 H       1  UNL1        0.1451
@<TRIPOS>BOND
     1    20    21    1
     2    21    22    1
     3    21    15    1
     4    15    16   ar
     5    16    17   ar
     6    17    18   ar
     7    18    19   ar
     8    19     1    1
     9     1     2   ar
    10     2     3   ar
    11     3     4   ar
    12     4     5   ar
    13     4     6    1
    14     6     7   ar
    15     7     8   ar
    16     8     9   ar
    17     9    23    1
    18    23    24    1
    19    24    25    1
    20    24    26    1
    21    26    27   am
    22    26    28    2
    23     9    10   ar
    24    10    11   ar
    25    11    12    1
    26    12    13    1
    27    13    14    1
    28    19    15   ar
    29     5     1   ar
    30    11     6   ar
    31    14     3    1
    32    27    29    1
    33    27    30    1
@<TRIPOS>MOLECULE
*****
 30 33 0 0 0
SMALL
GASTEIGER

@<TRIPOS>ATOM
      1 C          62.9885   83.9839   14.4383 C.ar    1  UNL1        0.1355
      2 C          62.7033   84.0979   15.9065 C.ar    1  UNL1        0.0996
      3 N          62.8806   85.5336   16.3029 N.ar    1  UNL1       -0.3063
      4 C          63.2753   86.3069   15.0798 C.ar    1  UNL1        0.1470
      5 N          63.3420   85.3491   13.9273 N.ar    1  UNL1       -0.2236
      6 C          63.5669   87.7729   14.9537 C.ar    1  UNL1        0.0683
      7 C          63.9269   88.1409   13.5449 C.ar    1  UNL1        0.0091
      8 C          64.2558   89.5637   13.2021 C.ar    1  UNL1        0.0372
      9 C          64.2247   90.6185   14.2682 C.ar    1  UNL1        0.1421
     10 C          63.8646   90.2505   15.6770 C.ar    1  UNL1        0.0739
     11 C          63.5357   88.8277   16.0198 C.ar    1  UNL1        0.1445
     12 O          63.2053   88.6769   17.4752 O.3     1  UNL1       -0.4732
     13 C          62.8245   87.4343   18.2240 C.3     1  UNL1        0.2298
     14 C          62.6799   86.0353   17.7023 C.3     1  UNL1        0.1547
     15 N          62.9919   82.6398   12.1277 N.ar    1  UNL1       -0.2333
     16 N          62.9000   81.1932   11.7420 N.ar    1  UNL1       -0.1453
     17 C          62.7817   80.3847   12.9999 C.ar    1  UNL1        0.2209
     18 N          62.8004   81.3317   14.1631 N.ar    1  UNL1       -0.2021
     19 C          62.9303   82.7255   13.6240 C.ar    1  UNL1        0.1804
     20 C          62.1256   84.9177   11.2272 C.3     1  UNL1        0.0264
     21 C          63.1224   83.7977   11.1830 C.3     1  UNL1        0.1070
     22 C          64.2496   83.8354   10.1941 C.3     1  UNL1        0.0264
     23 O          64.5536   92.0413   13.9253 O.3     1  UNL1       -0.4699
     24 C          65.9820   92.4542   13.7279 C.3     1  UNL1        0.2409
     25 C          66.5746   92.4698   12.3499 C.3     1  UNL1        0.0574
     26 C          66.8180   92.8514   14.9083 C.2     1  UNL1        0.2596
     27 N          66.2046   92.9103   16.2759 N.am    1  UNL1       -0.3259
     28 O          68.2672   93.1899   14.7211 O.2     1  UNL1       -0.2715
     29 H          65.2534   92.6881   16.3988 H       1  UNL1        0.1451
     30 H          66.7532   93.1710   17.0507 H       1  UNL1        0.1451
@<TRIPOS>BOND
     1    20    21    1
     2    21    22    1
     3    21    15    1
     4    15    16   ar
     5    16    17   ar
     6    17    18   ar
     7    18    19   ar
     8    19     1    1
     9     1     2   ar
    10     2     3   ar
    11     3     4   ar
    12     4     5   ar
    13     4     6    1
    14     6     7   ar
    15     7     8   ar
    16     8     9   ar
    17     9    23    1
    18    23    24    1
    19    24    25    1
    20    24    26    1
    21    26    27   am
    22    26    28    2
    23     9    10   ar
    24    10    11   ar
    25    11    12    1
    26    12    13    1
    27    13    14    1
    28    19    15   ar
    29     5     1   ar
    30    11     6   ar
    31    14     3    1
    32    27    29    1
    33    27    30    1
@<TRIPOS>MOLECULE
*****
 30 33 0 0 0
SMALL
GASTEIGER

@<TRIPOS>ATOM
      1 C          63.5576   89.7206   13.4720 C.ar    1  UNL1        0.1355
      2 C          63.7855   88.2383   13.4990 C.ar    1  UNL1        0.0996
      3 N          63.0478   87.6348   12.3409 N.ar    1  UNL1       -0.3063
      4 C          62.3639   88.7441   11.5980 C.ar    1  UNL1        0.1470
      5 N          62.6790   90.0333   12.2971 N.ar    1  UNL1       -0.2236
      6 C          61.5047   88.6578   10.3715 C.ar    1  UNL1        0.0683
      7 C          61.0144   90.0111    9.9495 C.ar    1  UNL1        0.0091
      8 C          60.1366   90.1475    8.7409 C.ar    1  UNL1        0.0372
      9 C          59.7491   88.9305    7.9543 C.ar    1  UNL1        0.1421
     10 C          60.2394   87.5772    8.3762 C.ar    1  UNL1        0.0739
     11 C          61.1172   87.4408    9.5848 C.ar    1  UNL1        0.1445
     12 O          61.4932   86.0096    9.8305 O.3     1  UNL1       -0.4732
     13 C          62.3494   85.4418   10.9233 C.3     1  UNL1        0.2298
     14 C          63.0413   86.1651   12.0406 C.3     1  UNL1        0.1547
     15 N          65.1615   91.7463   14.1573 N.ar    1  UNL1       -0.2333
     16 N          65.4111   92.5224   15.4164 N.ar    1  UNL1       -0.1453
     17 C          64.5151   91.9714   16.4858 C.ar    1  UNL1        0.2209
     18 N          63.7117   90.8548   15.8875 N.ar    1  UNL1       -0.2021
     19 C          64.1112   90.7157   14.4484 C.ar    1  UNL1        0.1804
     20 C          65.0282   92.2517   11.6123 C.3     1  UNL1        0.0264
     21 C          65.8426   91.9628   12.8384 C.3     1  UNL1        0.1070
     22 C          67.3379   91.8904   12.7458 C.3     1  UNL1        0.0264
     23 O          58.8712   89.0669    6.7456 O.3     1  UNL1       -0.4699
     24 C          59.0524   90.2288    5.8143 C.3     1  UNL1        0.2409
     25 C          60.4151   90.5554    5.2788 C.3     1  UNL1        0.0574
     26 C          57.8711   91.0641    5.4185 C.2     1  UNL1        0.2596
     27 N          58.0772   92.4554    4.8973 N.am    1  UNL1       -0.3259
     28 O          56.4836   90.5080    5.5439 O.2     1  UNL1       -0.2715
     29 H          58.9878   92.8204    4.8149 H       1  UNL1        0.1451
     30 H          57.3018   93.0037    4.6375 H       1  UNL1        0.1451
@<TRIPOS>BOND
     1    20    21    1
     2    21    22    1
     3    21    15    1
     4    15    16   ar
     5    16    17   ar
     6    17    18   ar
     7    18    19   ar
     8    19     1    1
     9     1     2   ar
    10     2     3   ar
    11     3     4   ar
    12     4     5   ar
    13     4     6    1
    14     6     7   ar
    15     7     8   ar
    16     8     9   ar
    17     9    23    1
    18    23    24    1
    19    24    25    1
    20    24    26    1
    21    26    27   am
    22    26    28    2
    23     9    10   ar
    24    10    11   ar
    25    11    12    1
    26    12    13    1
    27    13    14    1
    28    19    15   ar
    29     5     1   ar
    30    11     6   ar
    31    14     3    1
    32    27    29    1
    33    27    30    1
