@<TRIPOS>MOLECULE
*****
 26 28 0 0 0
SMALL
GASTEIGER

@<TRIPOS>ATOM
      1 C          63.2909   89.4969   16.5078 C.3     1  UNL1        0.0522
      2 C          63.6034   90.0517   15.1497 C.ar    1  UNL1        0.0625
      3 C          64.5324   91.2214   15.0129 C.ar    1  UNL1        0.0522
      4 C          64.8450   91.7762   13.6548 C.ar    1  UNL1        0.1482
      5 C          64.2284   91.1614   12.4334 C.ar    1  UNL1        0.0612
      6 C          63.2994   89.9917   12.5701 C.ar    1  UNL1        0.1374
      7 N          62.9869   89.4369   13.9283 N.ar    1  UNL1       -0.2449
      8 C          62.6828   89.3768   11.3487 C.2     1  UNL1        0.2684
      9 O          62.6179   90.1556   10.0684 O.2     1  UNL1       -0.2681
     10 N          62.1312   87.9832   11.4077 N.am    1  UNL1       -0.2645
     11 H          62.1739   87.4721   12.2480 H       1  UNL1        0.1566
     12 C          61.5147   87.3683   10.1862 C.ar    1  UNL1        0.1368
     13 C          60.0920   87.6794    9.8267 C.ar    1  UNL1        0.0346
     14 C          59.4756   87.0645    8.6053 C.ar    1  UNL1        0.0068
     15 C          60.2817   86.1385    7.7435 C.ar    1  UNL1        0.0498
     16 C          61.7043   85.8275    8.1030 C.ar    1  UNL1        0.2234
     17 F          62.5104   84.9015    7.2412 F       1  UNL1       -0.1832
     18 N          62.3208   86.4423    9.3244 N.ar    1  UNL1       -0.2029
     19 O          65.7740   92.9460   13.5181 O.3     1  UNL1       -0.4518
     20 C          66.3137   93.3215   12.1699 C.ar    1  UNL1        0.1666
     21 C          66.1293   94.7165   11.6502 C.ar    1  UNL1        0.1364
     22 N          66.6690   95.0921   10.3020 N.ar    1  UNL1       -0.2368
     23 C          67.3931   94.0726    9.4735 C.ar    1  UNL1        0.1286
     24 C          67.5775   92.6776    9.9931 C.ar    1  UNL1        0.1623
     25 F          68.3016   91.6582    9.1646 F       1  UNL1       -0.2024
     26 C          67.0378   92.3021   11.3414 C.ar    1  UNL1        0.0703
@<TRIPOS>BOND
     1     1     2    1
     2     2     3   ar
     3     3     4   ar
     4     4    19    1
     5    19    20    1
     6    20    21   ar
     7    21    22   ar
     8    22    23   ar
     9    23    24   ar
    10    24    25    1
    11    24    26   ar
    12     4     5   ar
    13     5     6   ar
    14     6     8    1
    15     8     9    2
    16     8    10   am
    17    10    12    1
    18    12    13   ar
    19    13    14   ar
    20    14    15   ar
    21    15    16   ar
    22    16    17    1
    23    16    18   ar
    24     6     7   ar
    25     7     2   ar
    26    26    20   ar
    27    18    12   ar
    28    10    11    1
@<TRIPOS>MOLECULE
*****
 26 28 0 0 0
SMALL
GASTEIGER

@<TRIPOS>ATOM
      1 C          62.1839   90.4749   10.4667 C.3     1  UNL1        0.0522
      2 C          62.8166   89.9800   11.7334 C.ar    1  UNL1        0.0625
      3 C          63.3063   90.9585   12.7593 C.ar    1  UNL1        0.0522
      4 C          63.9391   90.4635   14.0260 C.ar    1  UNL1        0.1482
      5 C          64.0821   88.9900   14.2669 C.ar    1  UNL1        0.0612
      6 C          63.5925   88.0114   13.2410 C.ar    1  UNL1        0.1374
      7 N          62.9597   88.5064   11.9742 N.ar    1  UNL1       -0.2449
      8 C          63.7355   86.5377   13.4817 C.2     1  UNL1        0.2684
      9 O          64.5982   86.0414   14.6040 O.2     1  UNL1       -0.2681
     10 N          63.0160   85.5604   12.6003 N.am    1  UNL1       -0.2645
     11 H          62.4497   85.8861   11.8637 H       1  UNL1        0.1566
     12 C          63.1590   84.0867   12.8411 C.ar    1  UNL1        0.1368
     13 C          64.3188   83.3397   12.2523 C.ar    1  UNL1        0.0346
     14 C          64.4619   81.8661   12.4931 C.ar    1  UNL1        0.0068
     15 C          63.4451   81.1396   13.3227 C.ar    1  UNL1        0.0498
     16 C          62.2853   81.8866   13.9115 C.ar    1  UNL1        0.2234
     17 F          61.2685   81.1600   14.7411 F       1  UNL1       -0.1832
     18 N          62.1422   83.3602   13.6707 N.ar    1  UNL1       -0.2029
     19 O          64.4287   91.4422   15.0520 O.3     1  UNL1       -0.4518
     20 C          65.8618   91.8851   15.0421 C.ar    1  UNL1        0.1666
     21 C          66.4009   92.7064   16.1757 C.ar    1  UNL1        0.1364
     22 N          67.8340   93.1492   16.1657 N.ar    1  UNL1       -0.2368
     23 C          68.7281   92.7708   15.0222 C.ar    1  UNL1        0.1286
     24 C          68.1890   91.9496   13.8887 C.ar    1  UNL1        0.1623
     25 F          69.0830   91.5711   12.7452 F       1  UNL1       -0.2024
     26 C          66.7559   91.5067   13.8986 C.ar    1  UNL1        0.0703
@<TRIPOS>BOND
     1     1     2    1
     2     2     3   ar
     3     3     4   ar
     4     4    19    1
     5    19    20    1
     6    20    21   ar
     7    21    22   ar
     8    22    23   ar
     9    23    24   ar
    10    24    25    1
    11    24    26   ar
    12     4     5   ar
    13     5     6   ar
    14     6     8    1
    15     8     9    2
    16     8    10   am
    17    10    12    1
    18    12    13   ar
    19    13    14   ar
    20    14    15   ar
    21    15    16   ar
    22    16    17    1
    23    16    18   ar
    24     6     7   ar
    25     7     2   ar
    26    26    20   ar
    27    18    12   ar
    28    10    11    1
@<TRIPOS>MOLECULE
*****
 26 28 0 0 0
SMALL
GASTEIGER

@<TRIPOS>ATOM
      1 C          58.7320   90.5657   11.8465 C.3     1  UNL1        0.0522
      2 C          60.0442   89.9783   11.4188 C.ar    1  UNL1        0.0625
      3 C          61.1495   90.8759   10.9468 C.ar    1  UNL1        0.0522
      4 C          62.4617   90.2885   10.5191 C.ar    1  UNL1        0.1482
      5 C          62.6687   88.8035   10.5634 C.ar    1  UNL1        0.0612
      6 C          61.5635   87.9060   11.0354 C.ar    1  UNL1        0.1374
      7 N          60.2512   88.4934   11.4631 N.ar    1  UNL1       -0.2449
      8 C          61.7705   86.4209   11.0796 C.2     1  UNL1        0.2684
      9 O          61.1061   85.5405   10.0630 O.2     1  UNL1       -0.2681
     10 N          62.6417   85.8164   12.1405 N.am    1  UNL1       -0.2645
     11 H          63.0778   86.3943   12.8077 H       1  UNL1        0.1566
     12 C          62.8487   84.3314   12.1847 C.ar    1  UNL1        0.1368
     13 C          63.5575   83.6390   11.0586 C.ar    1  UNL1        0.0346
     14 C          63.7644   82.1541   11.1029 C.ar    1  UNL1        0.0068
     15 C          63.2626   81.3615   12.2734 C.ar    1  UNL1        0.0498
     16 C          62.5539   82.0538   13.3995 C.ar    1  UNL1        0.2234
     17 F          62.0521   81.2612   14.5700 F       1  UNL1       -0.1832
     18 N          62.3469   83.5388   13.3552 N.ar    1  UNL1       -0.2029
     19 O          63.5670   91.1861   10.0471 O.3     1  UNL1       -0.4518
     20 C          64.4179   91.9158   11.0439 C.ar    1  UNL1        0.1666
     21 C          64.4010   91.5061   12.4868 C.ar    1  UNL1        0.1364
     22 N          65.2520   92.2358   13.4836 N.ar    1  UNL1       -0.2368
     23 C          66.1198   93.3751   13.0374 C.ar    1  UNL1        0.1286
     24 C          66.1366   93.7846   11.5946 C.ar    1  UNL1        0.1623
     25 F          67.0044   94.9239   11.1484 F       1  UNL1       -0.2024
     26 C          65.2857   93.0550   10.5978 C.ar    1  UNL1        0.0703
@<TRIPOS>BOND
     1     1     2    1
     2     2     3   ar
     3     3     4   ar
     4     4    19    1
     5    19    20    1
     6    20    21   ar
     7    21    22   ar
     8    22    23   ar
     9    23    24   ar
    10    24    25    1
    11    24    26   ar
    12     4     5   ar
    13     5     6   ar
    14     6     8    1
    15     8     9    2
    16     8    10   am
    17    10    12    1
    18    12    13   ar
    19    13    14   ar
    20    14    15   ar
    21    15    16   ar
    22    16    17    1
    23    16    18   ar
    24     6     7   ar
    25     7     2   ar
    26    26    20   ar
    27    18    12   ar
    28    10    11    1
@<TRIPOS>MOLECULE
*****
 26 28 0 0 0
SMALL
GASTEIGER

@<TRIPOS>ATOM
      1 C          62.6238   87.3170   18.7244 C.3     1  UNL1        0.0522
      2 C          63.0422   87.5386   17.3011 C.ar    1  UNL1        0.0625
      3 C          63.2136   88.9340   16.7783 C.ar    1  UNL1        0.0522
      4 C          63.6321   89.1556   15.3550 C.ar    1  UNL1        0.1482
      5 C          63.8791   87.9818   14.4544 C.ar    1  UNL1        0.0612
      6 C          63.7076   86.5863   14.9772 C.ar    1  UNL1        0.1374
      7 N          63.2892   86.3647   16.4005 N.ar    1  UNL1       -0.2449
      8 C          63.9546   85.4124   14.0767 C.2     1  UNL1        0.2684
      9 O          65.2825   84.7151   14.1006 O.2     1  UNL1       -0.2681
     10 N          62.8738   84.9358   13.1522 N.am    1  UNL1       -0.2645
     11 H          62.0023   85.3935   13.1365 H       1  UNL1        0.1566
     12 C          63.1208   83.7618   12.2517 C.ar    1  UNL1        0.1368
     13 C          63.7597   83.9670   10.9102 C.ar    1  UNL1        0.0346
     14 C          64.0066   82.7931   10.0097 C.ar    1  UNL1        0.0068
     15 C          63.6147   81.4140   10.4507 C.ar    1  UNL1        0.0498
     16 C          62.9758   81.2089   11.7922 C.ar    1  UNL1        0.2234
     17 F          62.5838   79.8298   12.2332 F       1  UNL1       -0.1832
     18 N          62.7288   82.3828   12.6927 N.ar    1  UNL1       -0.2029
     19 O          63.8035   90.5511   14.8322 O.3     1  UNL1       -0.4518
     20 C          65.0798   91.2965   15.0885 C.ar    1  UNL1        0.1666
     21 C          65.2118   92.1609   16.3073 C.ar    1  UNL1        0.1364
     22 N          66.4880   92.9062   16.5635 N.ar    1  UNL1       -0.2368
     23 C          67.6323   92.7871   15.6009 C.ar    1  UNL1        0.1286
     24 C          67.5003   91.9228   14.3821 C.ar    1  UNL1        0.1623
     25 F          68.6445   91.8037   13.4195 F       1  UNL1       -0.2024
     26 C          66.2240   91.1774   14.1259 C.ar    1  UNL1        0.0703
@<TRIPOS>BOND
     1     1     2    1
     2     2     3   ar
     3     3     4   ar
     4     4    19    1
     5    19    20    1
     6    20    21   ar
     7    21    22   ar
     8    22    23   ar
     9    23    24   ar
    10    24    25    1
    11    24    26   ar
    12     4     5   ar
    13     5     6   ar
    14     6     8    1
    15     8     9    2
    16     8    10   am
    17    10    12    1
    18    12    13   ar
    19    13    14   ar
    20    14    15   ar
    21    15    16   ar
    22    16    17    1
    23    16    18   ar
    24     6     7   ar
    25     7     2   ar
    26    26    20   ar
    27    18    12   ar
    28    10    11    1
@<TRIPOS>MOLECULE
*****
 26 28 0 0 0
SMALL
GASTEIGER

@<TRIPOS>ATOM
      1 C          63.1917   89.1112   16.3605 C.3     1  UNL1        0.0522
      2 C          63.4468   89.7354   15.0206 C.ar    1  UNL1        0.0625
      3 C          64.2854   90.9748   14.9181 C.ar    1  UNL1        0.0522
      4 C          64.5405   91.5991   13.5782 C.ar    1  UNL1        0.1482
      5 C          63.9570   90.9839   12.3409 C.ar    1  UNL1        0.0612
      6 C          63.1184   89.7445   12.4434 C.ar    1  UNL1        0.1374
      7 N          62.8633   89.1202   13.7833 N.ar    1  UNL1       -0.2449
      8 C          62.5349   89.1292   11.2060 C.2     1  UNL1        0.2684
      9 O          62.4254   89.9369    9.9468 O.2     1  UNL1       -0.2681
     10 N          62.0609   87.7063   11.2279 N.am    1  UNL1       -0.2645
     11 H          62.1327   87.1761   12.0544 H       1  UNL1        0.1566
     12 C          61.4773   87.0910    9.9905 C.ar    1  UNL1        0.1368
     13 C          60.0568   87.3818    9.6067 C.ar    1  UNL1        0.0346
     14 C          59.4733   86.7665    8.3694 C.ar    1  UNL1        0.0068
     15 C          60.3104   85.8605    7.5159 C.ar    1  UNL1        0.0498
     16 C          61.7310   85.5697    7.8998 C.ar    1  UNL1        0.2234
     17 F          62.5681   84.6637    7.0463 F       1  UNL1       -0.1832
     18 N          62.3144   86.1850    9.1371 N.ar    1  UNL1       -0.2029
     19 O          65.3792   92.8386   13.4757 O.3     1  UNL1       -0.4518
     20 C          66.8223   92.8034   13.8831 C.ar    1  UNL1        0.1666
     21 C          67.8021   91.9781   13.1027 C.ar    1  UNL1        0.1364
     22 N          69.2453   91.9430   13.5101 N.ar    1  UNL1       -0.2368
     23 C          69.7087   92.7332   14.6980 C.ar    1  UNL1        0.1286
     24 C          68.7289   93.5584   15.4784 C.ar    1  UNL1        0.1623
     25 F          69.1924   94.3486   16.6662 F       1  UNL1       -0.2024
     26 C          67.2858   93.5935   15.0709 C.ar    1  UNL1        0.0703
@<TRIPOS>BOND
     1     1     2    1
     2     2     3   ar
     3     3     4   ar
     4     4    19    1
     5    19    20    1
     6    20    21   ar
     7    21    22   ar
     8    22    23   ar
     9    23    24   ar
    10    24    25    1
    11    24    26   ar
    12     4     5   ar
    13     5     6   ar
    14     6     8    1
    15     8     9    2
    16     8    10   am
    17    10    12    1
    18    12    13   ar
    19    13    14   ar
    20    14    15   ar
    21    15    16   ar
    22    16    17    1
    23    16    18   ar
    24     6     7   ar
    25     7     2   ar
    26    26    20   ar
    27    18    12   ar
    28    10    11    1
@<TRIPOS>MOLECULE
*****
 26 28 0 0 0
SMALL
GASTEIGER

@<TRIPOS>ATOM
      1 C          58.6709   90.5086   11.9369 C.3     1  UNL1        0.0522
      2 C          59.9856   89.9486   11.4808 C.ar    1  UNL1        0.0625
      3 C          61.0746   90.8715   11.0201 C.ar    1  UNL1        0.0522
      4 C          62.3893   90.3115   10.5640 C.ar    1  UNL1        0.1482
      5 C          62.6149   88.8286   10.5685 C.ar    1  UNL1        0.0612
      6 C          61.5259   87.9057   11.0292 C.ar    1  UNL1        0.1374
      7 N          60.2112   88.4657   11.4853 N.ar    1  UNL1       -0.2449
      8 C          61.7515   86.4227   11.0338 C.2     1  UNL1        0.2684
      9 O          61.1597   85.5707    9.9503 O.2     1  UNL1       -0.2681
     10 N          62.5688   85.7918   12.1218 N.am    1  UNL1       -0.2645
     11 H          62.9572   86.3509   12.8329 H       1  UNL1        0.1566
     12 C          62.7944   84.3088   12.1263 C.ar    1  UNL1        0.1368
     13 C          63.4766   83.6503   10.9640 C.ar    1  UNL1        0.0346
     14 C          63.7022   82.1674   10.9686 C.ar    1  UNL1        0.0068
     15 C          63.2455   81.3430   12.1355 C.ar    1  UNL1        0.0498
     16 C          62.5633   82.0014   13.2979 C.ar    1  UNL1        0.2234
     17 F          62.1067   81.1769   14.4648 F       1  UNL1       -0.1832
     18 N          62.3378   83.4843   13.2933 N.ar    1  UNL1       -0.2029
     19 O          63.4784   91.2344   10.1033 O.3     1  UNL1       -0.4518
     20 C          64.4202   91.8402   11.1013 C.ar    1  UNL1        0.1666
     21 C          65.3588   92.9319   10.6802 C.ar    1  UNL1        0.1364
     22 N          66.3006   93.5376   11.6782 N.ar    1  UNL1       -0.2368
     23 C          66.3038   93.0517   13.0974 C.ar    1  UNL1        0.1286
     24 C          65.3652   91.9600   13.5184 C.ar    1  UNL1        0.1623
     25 F          65.3685   91.4740   14.9376 F       1  UNL1       -0.2024
     26 C          64.4234   91.3542   12.5204 C.ar    1  UNL1        0.0703
@<TRIPOS>BOND
     1     1     2    1
     2     2     3   ar
     3     3     4   ar
     4     4    19    1
     5    19    20    1
     6    20    21   ar
     7    21    22   ar
     8    22    23   ar
     9    23    24   ar
    10    24    25    1
    11    24    26   ar
    12     4     5   ar
    13     5     6   ar
    14     6     8    1
    15     8     9    2
    16     8    10   am
    17    10    12    1
    18    12    13   ar
    19    13    14   ar
    20    14    15   ar
    21    15    16   ar
    22    16    17    1
    23    16    18   ar
    24     6     7   ar
    25     7     2   ar
    26    26    20   ar
    27    18    12   ar
    28    10    11    1
@<TRIPOS>MOLECULE
*****
 26 28 0 0 0
SMALL
GASTEIGER

@<TRIPOS>ATOM
      1 C          59.8309   89.0267    7.9673 C.3     1  UNL1        0.0522
      2 C          60.6672   88.7720    9.1863 C.ar    1  UNL1        0.0625
      3 C          60.5432   87.4710    9.9224 C.ar    1  UNL1        0.0522
      4 C          61.3794   87.2163   11.1414 C.ar    1  UNL1        0.1482
      5 C          62.3397   88.2626   11.6241 C.ar    1  UNL1        0.0612
      6 C          62.4637   89.5636   10.8880 C.ar    1  UNL1        0.1374
      7 N          61.6274   89.8183    9.6690 N.ar    1  UNL1       -0.2449
      8 C          63.4240   90.6100   11.3707 C.2     1  UNL1        0.2684
      9 O          63.8552   91.7137   10.4510 O.2     1  UNL1       -0.2681
     10 N          63.9530   90.5527   12.7732 N.am    1  UNL1       -0.2645
     11 H          63.6699   89.8283   13.3768 H       1  UNL1        0.1566
     12 C          64.9133   91.5991   13.2559 C.ar    1  UNL1        0.1368
     13 C          65.5633   91.4575   14.6003 C.ar    1  UNL1        0.0346
     14 C          66.5235   92.5038   15.0830 C.ar    1  UNL1        0.0068
     15 C          66.8337   93.6918   14.2213 C.ar    1  UNL1        0.0498
     16 C          66.1837   93.8334   12.8769 C.ar    1  UNL1        0.2234
     17 F          66.4939   95.0214   12.0152 F       1  UNL1       -0.1832
     18 N          65.2235   92.7871   12.3942 N.ar    1  UNL1       -0.2029
     19 O          61.2554   85.9152   11.8775 O.3     1  UNL1       -0.4518
     20 C          62.4337   84.9919   11.9724 C.ar    1  UNL1        0.1666
     21 C          63.1574   84.8310   13.2765 C.ar    1  UNL1        0.1364
     22 N          64.3357   83.9077   13.3714 N.ar    1  UNL1       -0.2368
     23 C          64.7904   83.1453   12.1622 C.ar    1  UNL1        0.1286
     24 C          64.0668   83.3062   10.8582 C.ar    1  UNL1        0.1623
     25 F          64.5215   82.5438    9.6490 F       1  UNL1       -0.2024
     26 C          62.8884   84.2295   10.7633 C.ar    1  UNL1        0.0703
@<TRIPOS>BOND
     1     1     2    1
     2     2     3   ar
     3     3     4   ar
     4     4    19    1
     5    19    20    1
     6    20    21   ar
     7    21    22   ar
     8    22    23   ar
     9    23    24   ar
    10    24    25    1
    11    24    26   ar
    12     4     5   ar
    13     5     6   ar
    14     6     8    1
    15     8     9    2
    16     8    10   am
    17    10    12    1
    18    12    13   ar
    19    13    14   ar
    20    14    15   ar
    21    15    16   ar
    22    16    17    1
    23    16    18   ar
    24     6     7   ar
    25     7     2   ar
    26    26    20   ar
    27    18    12   ar
    28    10    11    1
@<TRIPOS>MOLECULE
*****
 26 28 0 0 0
SMALL
GASTEIGER

@<TRIPOS>ATOM
      1 C          59.1334   88.0680    7.4752 C.3     1  UNL1        0.0522
      2 C          60.1443   88.1051    8.5828 C.ar    1  UNL1        0.0625
      3 C          60.5612   89.4191    9.1739 C.ar    1  UNL1        0.0522
      4 C          61.5721   89.4562   10.2815 C.ar    1  UNL1        0.1482
      5 C          62.1660   88.1793   10.7980 C.ar    1  UNL1        0.0612
      6 C          61.7490   86.8653   10.2069 C.ar    1  UNL1        0.1374
      7 N          60.7381   86.8282    9.0993 N.ar    1  UNL1       -0.2449
      8 C          62.3429   85.5883   10.7233 C.2     1  UNL1        0.2684
      9 O          63.1754   84.7287    9.8189 O.2     1  UNL1       -0.2681
     10 N          62.1043   85.1710   12.1442 N.am    1  UNL1       -0.2645
     11 H          61.5579   85.7352   12.7378 H       1  UNL1        0.1566
     12 C          62.6982   83.8940   12.6607 C.ar    1  UNL1        0.1368
     13 C          63.5713   83.9123   13.8802 C.ar    1  UNL1        0.0346
     14 C          64.1651   82.6354   14.3966 C.ar    1  UNL1        0.0068
     15 C          63.8858   81.3401   13.6935 C.ar    1  UNL1        0.0498
     16 C          63.0127   81.3218   12.4740 C.ar    1  UNL1        0.2234
     17 F          62.7334   80.0266   11.7709 F       1  UNL1       -0.1832
     18 N          62.4188   82.5988   11.9576 N.ar    1  UNL1       -0.2029
     19 O          61.9891   90.7703   10.8727 O.3     1  UNL1       -0.4518
     20 C          63.0438   90.8123   11.9384 C.ar    1  UNL1        0.1666
     21 C          64.2807   91.6368   11.7374 C.ar    1  UNL1        0.1364
     22 N          65.3354   91.6788   12.8031 N.ar    1  UNL1       -0.2368
     23 C          65.1532   90.8964   14.0699 C.ar    1  UNL1        0.1286
     24 C          63.9163   90.0720   14.2709 C.ar    1  UNL1        0.1623
     25 F          63.7341   89.2896   15.5377 F       1  UNL1       -0.2024
     26 C          62.8616   90.0300   13.2052 C.ar    1  UNL1        0.0703
@<TRIPOS>BOND
     1     1     2    1
     2     2     3   ar
     3     3     4   ar
     4     4    19    1
     5    19    20    1
     6    20    21   ar
     7    21    22   ar
     8    22    23   ar
     9    23    24   ar
    10    24    25    1
    11    24    26   ar
    12     4     5   ar
    13     5     6   ar
    14     6     8    1
    15     8     9    2
    16     8    10   am
    17    10    12    1
    18    12    13   ar
    19    13    14   ar
    20    14    15   ar
    21    15    16   ar
    22    16    17    1
    23    16    18   ar
    24     6     7   ar
    25     7     2   ar
    26    26    20   ar
    27    18    12   ar
    28    10    11    1
@<TRIPOS>MOLECULE
*****
 26 28 0 0 0
SMALL
GASTEIGER

@<TRIPOS>ATOM
      1 C          63.1042   91.5703   10.0430 C.3     1  UNL1        0.0522
      2 C          63.3498   90.7188   11.2531 C.ar    1  UNL1        0.0625
      3 C          63.9977   91.3122   12.4688 C.ar    1  UNL1        0.0522
      4 C          64.2433   90.4607   13.6790 C.ar    1  UNL1        0.1482
      5 C          63.8410   89.0157   13.6735 C.ar    1  UNL1        0.0612
      6 C          63.1930   88.4222   12.4578 C.ar    1  UNL1        0.1374
      7 N          62.9474   89.2738   11.2476 N.ar    1  UNL1       -0.2449
      8 C          62.7906   86.9772   12.4523 C.2     1  UNL1        0.2684
      9 O          61.6146   86.5293   11.6360 O.2     1  UNL1       -0.2681
     10 N          63.5642   85.9801   13.2630 N.am    1  UNL1       -0.2645
     11 H          64.3361   86.2741   13.7987 H       1  UNL1        0.1566
     12 C          63.1618   84.5350   13.2574 C.ar    1  UNL1        0.1368
     13 C          62.5943   83.9098   14.4971 C.ar    1  UNL1        0.0346
     14 C          62.1919   82.4648   14.4915 C.ar    1  UNL1        0.0068
     15 C          62.3571   81.6451   13.2463 C.ar    1  UNL1        0.0498
     16 C          62.9247   82.2703   12.0066 C.ar    1  UNL1        0.2234
     17 F          63.0899   81.4506   10.7613 F       1  UNL1       -0.1832
     18 N          63.3271   83.7153   12.0122 N.ar    1  UNL1       -0.2029
     19 O          64.8913   91.0542   14.8947 O.3     1  UNL1       -0.4518
     20 C          66.2537   91.6734   14.7917 C.ar    1  UNL1        0.1666
     21 C          67.1626   91.3017   13.6577 C.ar    1  UNL1        0.1364
     22 N          68.5249   91.9209   13.5546 N.ar    1  UNL1       -0.2368
     23 C          68.9783   92.9118   14.5855 C.ar    1  UNL1        0.1286
     24 C          68.0694   93.2835   15.7194 C.ar    1  UNL1        0.1623
     25 F          68.5228   94.2744   16.7503 F       1  UNL1       -0.2024
     26 C          66.7071   92.6642   15.8225 C.ar    1  UNL1        0.0703
@<TRIPOS>BOND
     1     1     2    1
     2     2     3   ar
     3     3     4   ar
     4     4    19    1
     5    19    20    1
     6    20    21   ar
     7    21    22   ar
     8    22    23   ar
     9    23    24   ar
    10    24    25    1
    11    24    26   ar
    12     4     5   ar
    13     5     6   ar
    14     6     8    1
    15     8     9    2
    16     8    10   am
    17    10    12    1
    18    12    13   ar
    19    13    14   ar
    20    14    15   ar
    21    15    16   ar
    22    16    17    1
    23    16    18   ar
    24     6     7   ar
    25     7     2   ar
    26    26    20   ar
    27    18    12   ar
    28    10    11    1
