@<TRIPOS>MOLECULE
*****
 41 47 0 0 0
SMALL
GASTEIGER

@<TRIPOS>ATOM
      1 C          61.3325   92.9490    1.5733 C.2     1  UNL1       -0.0378
      2 C          62.3050   92.1028    2.3402 C.2     1  UNL1       -0.0080
      3 C          61.8703   91.4169    3.6015 C.2     1  UNL1        0.0022
      4 C          60.4632   91.5772    4.0957 C.2     1  UNL1        0.0350
      5 C          59.7524   91.0271    5.2966 C.2     1  UNL1        0.1040
      6 N          58.3406   91.5333    5.2719 N.2     1  UNL1       -0.1483
      7 N          58.1789   92.3963    4.0557 N.2     1  UNL1       -0.1520
      8 C          59.4907   92.4234    3.3288 C.2     1  UNL1        0.0860
      9 C          59.9253   93.1093    2.0676 C.3     1  UNL1        0.0697
     10 C          63.0164   95.9423   -4.3442 C.ar    1  UNL1        0.1385
     11 C          61.9238   95.5615   -5.2987 C.ar    1  UNL1        0.0382
     12 C          60.7916   94.6937   -4.8350 C.ar    1  UNL1        0.0177
     13 C          60.7520   94.2067   -3.4168 C.ar    1  UNL1        0.0505
     14 C          61.8446   94.5876   -2.4623 C.ar    1  UNL1        0.0024
     15 C          62.9769   95.4554   -2.9259 C.ar    1  UNL1        0.0343
     16 C          61.5388   93.9614   -1.1340 C.3     1  UNL1        0.0931
     17 C          62.7482   94.4965   -0.4262 C.3     1  UNL1        0.0179
     18 C          61.7671   93.6349    0.3121 C.3     1  UNL1        0.0315
     19 C          60.2572   93.1935   -1.2676 C.2     1  UNL1        0.2326
     20 O          59.5806   92.4113   -0.1812 O.2     1  UNL1       -0.2742
     21 N          59.7709   93.3451   -2.6785 N.am    1  UNL1       -0.2569
     22 C          58.5227   92.7412   -3.2506 C.3     1  UNL1        0.1200
     23 C          65.4380   96.8336   -4.0417 C.3     1  UNL1        0.2525
     24 O          64.1487   96.8101   -4.8078 O.3     1  UNL1       -0.4714
     25 C          60.3487   90.1285    6.3392 C.2     1  UNL1        0.0209
     26 C          59.4824   89.1397    7.0615 C.2     1  UNL1        0.0016
     27 C          60.0786   88.2411    8.1042 C.ar    1  UNL1        0.0000
     28 C          60.2634   86.7803    7.8183 C.ar    1  UNL1       -0.0003
     29 C          60.8597   85.8816    8.8608 C.ar    1  UNL1       -0.0029
     30 C          61.2711   86.4438   10.1892 C.ar    1  UNL1       -0.0061
     31 C          61.0863   87.9047   10.4751 C.ar    1  UNL1       -0.0029
     32 C          60.4900   88.8034    9.4325 C.ar    1  UNL1       -0.0003
     33 C          61.8673   85.5451   11.2317 C.3     1  UNL1        0.0993
     34 N          62.6890   86.1277   12.3432 N.3     1  UNL1       -0.2648
     35 C          63.2337   85.2365   13.4198 C.3     1  UNL1        0.1023
     36 C          64.0554   85.8190   14.5313 C.3     1  UNL1        0.1312
     37 C          64.6001   84.9277   15.6078 C.3     1  UNL1        0.0335
     38 O          64.3324   87.2928   14.5662 O.3     1  UNL1       -0.3559
     39 C          63.7877   88.1840   13.4896 C.3     1  UNL1        0.1312
     40 C          64.0647   89.6578   13.5246 C.3     1  UNL1        0.0335
     41 C          62.9660   87.6015   12.3781 C.3     1  UNL1        0.1023
@<TRIPOS>BOND
     1    23    24    1
     2    24    10    1
     3    10    11   ar
     4    11    12   ar
     5    12    13   ar
     6    13    14   ar
     7    14    15   ar
     8    14    16    1
     9    16    17    1
    10    17    18    1
    11    18     1    1
    12     1     2    2
    13     2     3    1
    14     3     4    2
    15     4     5    1
    16     5    25    1
    17    25    26    2
    18    26    27    1
    19    27    28   ar
    20    28    29   ar
    21    29    30   ar
    22    30    33    1
    23    33    34    1
    24    34    35    1
    25    35    36    1
    26    36    37    1
    27    36    38    1
    28    38    39    1
    29    39    40    1
    30    39    41    1
    31    30    31   ar
    32    31    32   ar
    33     5     6    2
    34     6     7    1
    35     7     8    2
    36     8     9    1
    37    16    19    1
    38    19    20    2
    39    19    21   am
    40    21    22    1
    41    15    10   ar
    42    18    16    1
    43     9     1    1
    44    21    13    1
    45     8     4    1
    46    32    27   ar
    47    41    34    1
@<TRIPOS>MOLECULE
*****
 41 47 0 0 0
SMALL
GASTEIGER

@<TRIPOS>ATOM
      1 C          61.1493   92.6023    1.8989 C.2     1  UNL1       -0.0378
      2 C          62.1553   92.0258    2.8504 C.2     1  UNL1       -0.0080
      3 C          61.7053   91.4542    4.1622 C.2     1  UNL1        0.0022
      4 C          60.2492   91.4591    4.5224 C.2     1  UNL1        0.0350
      5 C          59.5135   90.9698    5.7346 C.2     1  UNL1        0.1040
      6 N          58.0527   91.2439    5.5322 N.2     1  UNL1       -0.1483
      7 N          57.8856   91.9026    4.1950 N.2     1  UNL1       -0.1520
      8 C          59.2431   92.0356    3.5709 C.2     1  UNL1        0.0860
      9 C          59.6931   92.6072    2.2591 C.3     1  UNL1        0.0697
     10 C          63.4351   95.4241   -3.8998 C.ar    1  UNL1        0.1385
     11 C          64.4738   96.4162   -3.4678 C.ar    1  UNL1        0.0382
     12 C          64.7860   96.5888   -2.0108 C.ar    1  UNL1        0.0177
     13 C          64.0594   95.7693   -0.9859 C.ar    1  UNL1        0.0505
     14 C          63.0206   94.7771   -1.4179 C.ar    1  UNL1        0.0024
     15 C          62.7084   94.6045   -2.8749 C.ar    1  UNL1        0.0343
     16 C          62.4721   94.1154   -0.1887 C.3     1  UNL1        0.0931
     17 C          61.5058   93.2226   -0.9092 C.3     1  UNL1        0.0179
     18 C          61.5992   93.1739    0.5871 C.3     1  UNL1        0.0315
     19 C          63.1718   94.6985    1.0031 C.2     1  UNL1        0.2326
     20 O          62.9326   94.3250    2.4360 O.2     1  UNL1       -0.2742
     21 N          64.1528   95.7207    0.5104 N.am    1  UNL1       -0.2569
     22 C          65.0668   96.5488    1.3641 C.3     1  UNL1        0.1200
     23 C          62.4883   93.9821   -5.8426 C.3     1  UNL1        0.2525
     24 O          63.1229   95.2515   -5.3568 O.3     1  UNL1       -0.4714
     25 C          60.1303   90.3204    6.9378 C.2     1  UNL1        0.0209
     26 C          59.6985   88.9449    7.3518 C.2     1  UNL1        0.0016
     27 C          60.3152   88.2954    8.5551 C.ar    1  UNL1        0.0000
     28 C          60.2536   86.8055    8.7174 C.ar    1  UNL1       -0.0003
     29 C          60.8703   86.1560    9.9206 C.ar    1  UNL1       -0.0029
     30 C          61.5487   86.9964   10.9615 C.ar    1  UNL1       -0.0061
     31 C          61.6103   88.4863   10.7992 C.ar    1  UNL1       -0.0029
     32 C          60.9936   89.1358    9.5959 C.ar    1  UNL1       -0.0003
     33 C          62.1654   86.3468   12.1647 C.3     1  UNL1        0.0993
     34 N          62.5347   84.8936   12.1259 N.3     1  UNL1       -0.2648
     35 C          62.1410   83.9892   13.2561 C.3     1  UNL1        0.1023
     36 C          62.5103   82.5359   13.2174 C.3     1  UNL1        0.1312
     37 C          62.1165   81.6317   14.3476 C.3     1  UNL1        0.0335
     38 O          63.2733   81.9869   12.0484 O.3     1  UNL1       -0.3559
     39 C          63.6670   82.8912   10.9183 C.3     1  UNL1        0.1312
     40 C          64.4301   82.3421    9.7494 C.3     1  UNL1        0.0335
     41 C          63.2977   84.3445   10.9570 C.3     1  UNL1        0.1023
@<TRIPOS>BOND
     1    23    24    1
     2    24    10    1
     3    10    11   ar
     4    11    12   ar
     5    12    13   ar
     6    13    14   ar
     7    14    15   ar
     8    14    16    1
     9    16    17    1
    10    17    18    1
    11    18     1    1
    12     1     2    2
    13     2     3    1
    14     3     4    2
    15     4     5    1
    16     5    25    1
    17    25    26    2
    18    26    27    1
    19    27    28   ar
    20    28    29   ar
    21    29    30   ar
    22    30    33    1
    23    33    34    1
    24    34    35    1
    25    35    36    1
    26    36    37    1
    27    36    38    1
    28    38    39    1
    29    39    40    1
    30    39    41    1
    31    30    31   ar
    32    31    32   ar
    33     5     6    2
    34     6     7    1
    35     7     8    2
    36     8     9    1
    37    16    19    1
    38    19    20    2
    39    19    21   am
    40    21    22    1
    41    15    10   ar
    42    18    16    1
    43     9     1    1
    44    21    13    1
    45     8     4    1
    46    32    27   ar
    47    41    34    1
@<TRIPOS>MOLECULE
*****
 41 47 0 0 0
SMALL
GASTEIGER

@<TRIPOS>ATOM
      1 C          61.3179   92.5517    2.5809 C.2     1  UNL1       -0.0378
      2 C          62.1053   91.6354    3.4699 C.2     1  UNL1       -0.0080
      3 C          61.4233   90.9103    4.5920 C.2     1  UNL1        0.0022
      4 C          59.9539   91.1015    4.8251 C.2     1  UNL1        0.0350
      5 C          59.0159   90.5252    5.8440 C.2     1  UNL1        0.1040
      6 N          57.6488   91.0854    5.5848 N.2     1  UNL1       -0.1483
      7 N          57.7419   92.0079    4.4057 N.2     1  UNL1       -0.1520
      8 C          59.1665   92.0179    3.9362 C.2     1  UNL1        0.0860
      9 C          59.8484   92.7430    2.8141 C.3     1  UNL1        0.0697
     10 C          64.1499   95.7627   -2.7559 C.ar    1  UNL1        0.1385
     11 C          63.1954   95.5464   -3.8926 C.ar    1  UNL1        0.0382
     12 C          61.9386   94.7565   -3.6766 C.ar    1  UNL1        0.0177
     13 C          61.6364   94.1829   -2.3240 C.ar    1  UNL1        0.0505
     14 C          62.5910   94.3991   -1.1873 C.ar    1  UNL1        0.0024
     15 C          63.8477   95.1890   -1.4032 C.ar    1  UNL1        0.0343
     16 C          62.0299   93.7172    0.0252 C.3     1  UNL1        0.0931
     17 C          63.1507   94.0923    0.9488 C.3     1  UNL1        0.0179
     18 C          61.9998   93.2768    1.4588 C.3     1  UNL1        0.0315
     19 C          60.7286   93.0795   -0.3621 C.2     1  UNL1        0.2326
     20 O          59.8286   92.2923    0.5435 O.2     1  UNL1       -0.2742
     21 N          60.4854   93.3673   -1.8140 N.am    1  UNL1       -0.2569
     22 C          59.2994   92.9184   -2.6152 C.3     1  UNL1        0.1200
     23 C          65.9335   96.7589   -4.3610 C.3     1  UNL1        0.2525
     24 O          65.4067   96.5526   -2.9718 O.3     1  UNL1       -0.4714
     25 C          59.3810   89.5585    6.9313 C.2     1  UNL1        0.0209
     26 C          60.3322   89.9724    8.0147 C.2     1  UNL1        0.0016
     27 C          60.6974   89.0057    9.1020 C.ar    1  UNL1        0.0000
     28 C          61.7572   89.3656   10.1006 C.ar    1  UNL1       -0.0003
     29 C          62.1224   88.3990   11.1879 C.ar    1  UNL1       -0.0029
     30 C          61.4277   87.0725   11.2765 C.ar    1  UNL1       -0.0061
     31 C          60.3679   86.7126   10.2779 C.ar    1  UNL1       -0.0029
     32 C          60.0027   87.6793    9.1906 C.ar    1  UNL1       -0.0003
     33 C          61.7929   86.1059   12.3639 C.3     1  UNL1        0.0993
     34 N          62.5097   84.8324   12.0257 N.3     1  UNL1       -0.2648
     35 C          62.6853   83.7704   13.0705 C.3     1  UNL1        0.1023
     36 C          63.4021   82.4969   12.7324 C.3     1  UNL1        0.1312
     37 C          63.5776   81.4350   13.7772 C.3     1  UNL1        0.0335
     38 O          63.9433   82.2853   11.3495 O.3     1  UNL1       -0.3559
     39 C          63.7678   83.3473   10.3048 C.3     1  UNL1        0.1312
     40 C          64.3091   83.1356    8.9220 C.3     1  UNL1        0.0335
     41 C          63.0510   84.6208   10.6429 C.3     1  UNL1        0.1023
@<TRIPOS>BOND
     1    23    24    1
     2    24    10    1
     3    10    11   ar
     4    11    12   ar
     5    12    13   ar
     6    13    14   ar
     7    14    15   ar
     8    14    16    1
     9    16    17    1
    10    17    18    1
    11    18     1    1
    12     1     2    2
    13     2     3    1
    14     3     4    2
    15     4     5    1
    16     5    25    1
    17    25    26    2
    18    26    27    1
    19    27    28   ar
    20    28    29   ar
    21    29    30   ar
    22    30    33    1
    23    33    34    1
    24    34    35    1
    25    35    36    1
    26    36    37    1
    27    36    38    1
    28    38    39    1
    29    39    40    1
    30    39    41    1
    31    30    31   ar
    32    31    32   ar
    33     5     6    2
    34     6     7    1
    35     7     8    2
    36     8     9    1
    37    16    19    1
    38    19    20    2
    39    19    21   am
    40    21    22    1
    41    15    10   ar
    42    18    16    1
    43     9     1    1
    44    21    13    1
    45     8     4    1
    46    32    27   ar
    47    41    34    1
@<TRIPOS>MOLECULE
*****
 41 47 0 0 0
SMALL
GASTEIGER

@<TRIPOS>ATOM
      1 C          61.4376   92.4873    2.2653 C.2     1  UNL1       -0.0378
      2 C          62.1360   91.5176    3.1719 C.2     1  UNL1       -0.0080
      3 C          61.3865   90.8718    4.2995 C.2     1  UNL1        0.0022
      4 C          59.9387   91.1958    4.5205 C.2     1  UNL1        0.0350
      5 C          58.9480   90.7195    5.5411 C.2     1  UNL1        0.1040
      6 N          57.6373   91.3948    5.2653 N.2     1  UNL1       -0.1483
      7 N          57.8180   92.2884    4.0742 N.2     1  UNL1       -0.1520
      8 C          59.2403   92.1655    3.6139 C.2     1  UNL1        0.0860
      9 C          59.9897   92.8112    2.4863 C.3     1  UNL1        0.0697
     10 C          65.0367   95.6335   -2.6295 C.ar    1  UNL1        0.1385
     11 C          65.9356   96.5877   -1.9005 C.ar    1  UNL1        0.0382
     12 C          65.8870   96.6686   -0.4034 C.ar    1  UNL1        0.0177
     13 C          64.9395   95.7954    0.3645 C.ar    1  UNL1        0.0505
     14 C          64.0406   94.8412   -0.3646 C.ar    1  UNL1        0.0024
     15 C          64.0891   94.7602   -1.8616 C.ar    1  UNL1        0.0343
     16 C          63.2158   94.1114    0.6538 C.3     1  UNL1        0.0931
     17 C          62.4561   93.2732   -0.3311 C.3     1  UNL1        0.0179
     18 C          62.1870   93.1330    1.1378 C.3     1  UNL1        0.0315
     19 C          63.6051   94.6145    2.0123 C.2     1  UNL1        0.2326
     20 O          63.0300   94.1571    3.3200 O.2     1  UNL1       -0.2742
     21 N          64.6703   95.6553    1.8335 N.am    1  UNL1       -0.2569
     22 C          65.3475   96.4214    2.9310 C.3     1  UNL1        0.1200
     23 C          64.1209   96.3511   -4.9526 C.3     1  UNL1        0.2525
     24 O          65.0853   95.5525   -4.1266 O.3     1  UNL1       -0.4714
     25 C          59.2202   89.7398    6.6439 C.2     1  UNL1        0.0209
     26 C          60.1194   90.1224    7.7819 C.2     1  UNL1        0.0016
     27 C          60.3917   89.1428    8.8848 C.ar    1  UNL1        0.0000
     28 C          60.7832   89.6360   10.2462 C.ar    1  UNL1       -0.0003
     29 C          61.0555   88.6565   11.3491 C.ar    1  UNL1       -0.0029
     30 C          60.9363   87.1838   11.0905 C.ar    1  UNL1       -0.0061
     31 C          60.5448   86.6906    9.7291 C.ar    1  UNL1       -0.0029
     32 C          60.2725   87.6701    8.6262 C.ar    1  UNL1       -0.0003
     33 C          61.2086   86.2043   12.1934 C.3     1  UNL1        0.0993
     34 N          62.4318   85.3376   12.1418 N.3     1  UNL1       -0.2648
     35 C          62.7076   84.5010   10.9276 C.3     1  UNL1        0.1023
     36 C          63.9308   83.6344   10.8759 C.3     1  UNL1        0.1312
     37 C          64.2065   82.7979    9.6618 C.3     1  UNL1        0.0335
     38 O          64.8782   83.6042   12.0385 O.3     1  UNL1       -0.3559
     39 C          64.6024   84.4407   13.2526 C.3     1  UNL1        0.1312
     40 C          65.5498   84.4105   14.4152 C.3     1  UNL1        0.0335
     41 C          63.3792   85.3074   13.3043 C.3     1  UNL1        0.1023
@<TRIPOS>BOND
     1    23    24    1
     2    24    10    1
     3    10    11   ar
     4    11    12   ar
     5    12    13   ar
     6    13    14   ar
     7    14    15   ar
     8    14    16    1
     9    16    17    1
    10    17    18    1
    11    18     1    1
    12     1     2    2
    13     2     3    1
    14     3     4    2
    15     4     5    1
    16     5    25    1
    17    25    26    2
    18    26    27    1
    19    27    28   ar
    20    28    29   ar
    21    29    30   ar
    22    30    33    1
    23    33    34    1
    24    34    35    1
    25    35    36    1
    26    36    37    1
    27    36    38    1
    28    38    39    1
    29    39    40    1
    30    39    41    1
    31    30    31   ar
    32    31    32   ar
    33     5     6    2
    34     6     7    1
    35     7     8    2
    36     8     9    1
    37    16    19    1
    38    19    20    2
    39    19    21   am
    40    21    22    1
    41    15    10   ar
    42    18    16    1
    43     9     1    1
    44    21    13    1
    45     8     4    1
    46    32    27   ar
    47    41    34    1
@<TRIPOS>MOLECULE
*****
 41 47 0 0 0
SMALL
GASTEIGER

@<TRIPOS>ATOM
      1 C          60.0978   88.7685    7.4092 C.2     1  UNL1       -0.0378
      2 C          61.0646   89.5138    6.5375 C.2     1  UNL1       -0.0080
      3 C          60.5592   90.5219    5.5482 C.2     1  UNL1        0.0022
      4 C          59.0870   90.7845    5.4307 C.2     1  UNL1        0.0350
      5 C          58.2999   91.7125    4.5537 C.2     1  UNL1        0.1040
      6 N          56.8467   91.5408    4.8833 N.2     1  UNL1       -0.1483
      7 N          56.7357   90.5066    5.9641 N.2     1  UNL1       -0.1520
      8 C          58.1203   90.0392    6.3024 C.2     1  UNL1        0.0860
      9 C          58.6256   89.0312    7.2916 C.3     1  UNL1        0.0697
     10 C          62.5467   84.4474   12.1148 C.ar    1  UNL1        0.1385
     11 C          63.2402   85.3179   13.1204 C.ar    1  UNL1        0.0382
     12 C          63.2672   86.8058   12.9324 C.ar    1  UNL1        0.0177
     13 C          62.6006   87.4232   11.7389 C.ar    1  UNL1        0.0505
     14 C          61.9071   86.5527   10.7333 C.ar    1  UNL1        0.0024
     15 C          61.8801   85.0648   10.9212 C.ar    1  UNL1        0.0343
     16 C          61.3416   87.4397    9.6640 C.3     1  UNL1        0.0931
     17 C          60.7400   86.3356    8.8462 C.3     1  UNL1        0.0179
     18 C          60.6032   87.7606    8.3984 C.3     1  UNL1        0.0315
     19 C          61.6857   88.8585   10.0087 C.2     1  UNL1        0.2326
     20 O          61.3165   90.0740    9.2111 O.2     1  UNL1       -0.2742
     21 N          62.4638   88.8483   11.2910 N.am    1  UNL1       -0.2569
     22 C          63.0093   90.0518   12.0009 C.3     1  UNL1        0.1200
     23 C          63.7592   82.2359   12.7384 C.3     1  UNL1        0.2525
     24 O          62.5196   82.9594   12.3027 O.3     1  UNL1       -0.4714
     25 C          58.8666   92.6481    3.5272 C.2     1  UNL1        0.0209
     26 C          60.3019   92.5232    3.1098 C.2     1  UNL1        0.0016
     27 C          60.8687   93.4588    2.0833 C.ar    1  UNL1        0.0000
     28 C          62.3516   93.5267    1.8681 C.ar    1  UNL1       -0.0003
     29 C          62.9185   94.4622    0.8417 C.ar    1  UNL1       -0.0029
     30 C          62.0023   95.3296    0.0304 C.ar    1  UNL1       -0.0061
     31 C          60.5194   95.2617    0.2456 C.ar    1  UNL1       -0.0029
     32 C          59.9526   94.3262    1.2721 C.ar    1  UNL1       -0.0003
     33 C          62.5692   96.2651   -0.9960 C.3     1  UNL1        0.0993
     34 N          63.3569   95.7226   -2.1515 N.3     1  UNL1       -0.2648
     35 C          64.4245   96.5604   -2.7906 C.3     1  UNL1        0.1023
     36 C          65.2123   96.0180   -3.9461 C.3     1  UNL1        0.1312
     37 C          66.2799   96.8558   -4.5851 C.3     1  UNL1        0.0335
     38 O          64.9324   94.6377   -4.4625 O.3     1  UNL1       -0.3559
     39 C          63.8649   93.8000   -3.8234 C.3     1  UNL1        0.1312
     40 C          63.5851   92.4198   -4.3399 C.3     1  UNL1        0.0335
     41 C          63.0771   94.3424   -2.6679 C.3     1  UNL1        0.1023
@<TRIPOS>BOND
     1    23    24    1
     2    24    10    1
     3    10    11   ar
     4    11    12   ar
     5    12    13   ar
     6    13    14   ar
     7    14    15   ar
     8    14    16    1
     9    16    17    1
    10    17    18    1
    11    18     1    1
    12     1     2    2
    13     2     3    1
    14     3     4    2
    15     4     5    1
    16     5    25    1
    17    25    26    2
    18    26    27    1
    19    27    28   ar
    20    28    29   ar
    21    29    30   ar
    22    30    33    1
    23    33    34    1
    24    34    35    1
    25    35    36    1
    26    36    37    1
    27    36    38    1
    28    38    39    1
    29    39    40    1
    30    39    41    1
    31    30    31   ar
    32    31    32   ar
    33     5     6    2
    34     6     7    1
    35     7     8    2
    36     8     9    1
    37    16    19    1
    38    19    20    2
    39    19    21   am
    40    21    22    1
    41    15    10   ar
    42    18    16    1
    43     9     1    1
    44    21    13    1
    45     8     4    1
    46    32    27   ar
    47    41    34    1
