@<TRIPOS>MOLECULE
*****
 24 26 0 0 0
SMALL
GASTEIGER

@<TRIPOS>ATOM
      1 O          61.2248   89.1728    9.3781 O.3     1  UNL1       -0.4706
      2 C          62.0888   89.8326   10.4117 C.ar    1  UNL1        0.1397
      3 C          61.9273   89.4795   11.8605 C.ar    1  UNL1        0.0385
      4 C          62.7914   90.1393   12.8940 C.ar    1  UNL1        0.0228
      5 C          63.8169   91.1520   12.4786 C.ar    1  UNL1        0.0894
      6 N          64.8046   91.9613   13.2659 N.ar    1  UNL1       -0.2245
      7 C          65.5765   92.8145   12.3035 C.ar    1  UNL1        0.1567
      8 N          66.6676   93.7801   12.6603 N.pl3   1  UNL1       -0.3375
      9 S          65.0659   92.5325   10.9215 S.2     1  UNL1       -0.0519
     10 C          63.9785   91.5051   11.0298 C.ar    1  UNL1        0.0527
     11 C          63.1144   90.8453    9.9963 C.ar    1  UNL1        0.0450
     12 H          66.9338   93.8963   13.6010 H       1  UNL1        0.1442
     13 H          67.1174   94.2976   11.9539 H       1  UNL1        0.1442
     14 C          60.6101   87.8336    9.6583 C.3     1  UNL1        0.2320
     15 C          63.2354   84.3168   10.6533 C.ar    1  UNL1        0.0756
     16 C          62.3909   84.9480   11.7203 C.ar    1  UNL1        0.0062
     17 C          61.5158   86.1202   11.3887 C.ar    1  UNL1       -0.0005
     18 C          61.4852   86.6613    9.9900 C.ar    1  UNL1        0.0212
     19 C          62.3297   86.0301    8.9230 C.ar    1  UNL1       -0.0005
     20 C          63.2047   84.8579    9.2546 C.ar    1  UNL1        0.0062
     21 C          64.1105   83.1445   10.9849 C.2     1  UNL1        0.3413
     22 O          64.7581   82.3570    9.8847 O.2     1  UNL1       -0.2449
     23 C          63.6490   81.5563   12.9885 C.3     1  UNL1        0.2560
     24 O          64.3380   82.7598   12.4168 O.3     1  UNL1       -0.4413
@<TRIPOS>BOND
     1    23    24    1
     2    24    21    1
     3    21    22    2
     4    21    15    1
     5    15    16   ar
     6    16    17   ar
     7    17    18   ar
     8    18    14    1
     9    14     1    1
    10     1     2    1
    11     2     3   ar
    12     3     4   ar
    13     4     5   ar
    14     5     6   ar
    15     6     7   ar
    16     7     8    1
    17     7     9   ar
    18     9    10   ar
    19    10    11   ar
    20    18    19   ar
    21    19    20   ar
    22    20    15   ar
    23    11     2   ar
    24    10     5   ar
    25     8    12    1
    26     8    13    1
@<TRIPOS>MOLECULE
*****
 24 26 0 0 0
SMALL
GASTEIGER

@<TRIPOS>ATOM
      1 O          61.8717   87.3630    9.6294 O.3     1  UNL1       -0.4706
      2 C          62.4021   86.0350   10.0823 C.ar    1  UNL1        0.1397
      3 C          63.0798   85.1242    9.1020 C.ar    1  UNL1        0.0385
      4 C          63.6102   83.7963    9.5549 C.ar    1  UNL1        0.0228
      5 C          63.4630   83.3792   10.9882 C.ar    1  UNL1        0.0894
      6 N          63.8828   82.1394   11.7210 N.ar    1  UNL1       -0.2245
      7 C          63.4646   82.2841   13.1542 C.ar    1  UNL1        0.1567
      8 N          63.6858   81.2766   14.2433 N.pl3   1  UNL1       -0.3375
      9 S          62.7863   83.6133   13.3072 S.2     1  UNL1       -0.0519
     10 C          62.7853   84.2900   11.9686 C.ar    1  UNL1        0.0527
     11 C          62.2549   85.6179   11.5156 C.ar    1  UNL1        0.0450
     12 H          64.1436   80.4282   14.0435 H       1  UNL1        0.1442
     13 H          63.3732   81.4637   15.1579 H       1  UNL1        0.1442
     14 C          61.4507   88.3872   10.6412 C.3     1  UNL1        0.2320
     15 C          64.3727   91.5176   12.0239 C.ar    1  UNL1        0.0756
     16 C          63.7993   91.5862   10.6396 C.ar    1  UNL1        0.0062
     17 C          62.8253   90.5428   10.1787 C.ar    1  UNL1       -0.0005
     18 C          62.4247   89.4307   11.1021 C.ar    1  UNL1        0.0212
     19 C          62.9982   89.3621   12.4865 C.ar    1  UNL1       -0.0005
     20 C          63.9722   90.4055   12.9474 C.ar    1  UNL1        0.0062
     21 C          65.3468   92.5612   12.4848 C.2     1  UNL1        0.3413
     22 O          66.0613   93.4159   11.4804 O.2     1  UNL1       -0.2449
     23 C          66.7593   93.5946   14.4048 C.3     1  UNL1        0.2560
     24 O          65.6062   92.7499   13.9501 O.3     1  UNL1       -0.4413
@<TRIPOS>BOND
     1    23    24    1
     2    24    21    1
     3    21    22    2
     4    21    15    1
     5    15    16   ar
     6    16    17   ar
     7    17    18   ar
     8    18    14    1
     9    14     1    1
    10     1     2    1
    11     2     3   ar
    12     3     4   ar
    13     4     5   ar
    14     5     6   ar
    15     6     7   ar
    16     7     8    1
    17     7     9   ar
    18     9    10   ar
    19    10    11   ar
    20    18    19   ar
    21    19    20   ar
    22    20    15   ar
    23    11     2   ar
    24    10     5   ar
    25     8    12    1
    26     8    13    1
@<TRIPOS>MOLECULE
*****
 24 26 0 0 0
SMALL
GASTEIGER

@<TRIPOS>ATOM
      1 O          61.2768   89.3971   10.7995 O.3     1  UNL1       -0.4706
      2 C          62.4604   90.1904   11.2683 C.ar    1  UNL1        0.1397
      3 C          63.1249   91.1648   10.3415 C.ar    1  UNL1        0.0385
      4 C          64.3085   91.9581   10.8104 C.ar    1  UNL1        0.0228
      5 C          64.8274   91.7770   12.2060 C.ar    1  UNL1        0.0894
      6 N          65.9677   92.4144   12.9434 N.ar    1  UNL1       -0.2245
      7 C          66.0078   91.8339   14.3259 C.ar    1  UNL1        0.1567
      8 N          66.9908   92.1874   15.4025 N.pl3   1  UNL1       -0.3375
      9 S          64.8924   90.8379   14.4430 S.2     1  UNL1       -0.0519
     10 C          64.1629   90.8027   13.1328 C.ar    1  UNL1        0.0527
     11 C          62.9793   90.0094   12.6640 C.ar    1  UNL1        0.0450
     12 H          67.6912   92.8572   15.2290 H       1  UNL1        0.1442
     13 H          66.9356   91.7496   16.2826 H       1  UNL1        0.1442
     14 C          61.4350   88.3967    9.6931 C.3     1  UNL1        0.2320
     15 C          62.9959   84.2734   10.5942 C.ar    1  UNL1        0.0756
     16 C          63.0786   84.8184    9.1992 C.ar    1  UNL1        0.0062
     17 C          62.5584   86.1928    8.8988 C.ar    1  UNL1       -0.0005
     18 C          61.9554   87.0222    9.9934 C.ar    1  UNL1        0.0212
     19 C          61.8726   86.4773   11.3885 C.ar    1  UNL1       -0.0005
     20 C          62.3929   85.1029   11.6889 C.ar    1  UNL1        0.0062
     21 C          63.5162   82.8989   10.8946 C.2     1  UNL1        0.3413
     22 O          64.9084   82.5182   10.4862 O.2     1  UNL1       -0.2449
     23 C          62.8610   81.6223   13.0603 C.3     1  UNL1        0.2560
     24 O          62.6443   81.9053   11.6033 O.3     1  UNL1       -0.4413
@<TRIPOS>BOND
     1    23    24    1
     2    24    21    1
     3    21    22    2
     4    21    15    1
     5    15    16   ar
     6    16    17   ar
     7    17    18   ar
     8    18    14    1
     9    14     1    1
    10     1     2    1
    11     2     3   ar
    12     3     4   ar
    13     4     5   ar
    14     5     6   ar
    15     6     7   ar
    16     7     8    1
    17     7     9   ar
    18     9    10   ar
    19    10    11   ar
    20    18    19   ar
    21    19    20   ar
    22    20    15   ar
    23    11     2   ar
    24    10     5   ar
    25     8    12    1
    26     8    13    1
@<TRIPOS>MOLECULE
*****
 24 26 0 0 0
SMALL
GASTEIGER

@<TRIPOS>ATOM
      1 O          63.1243   89.3620   13.4582 O.3     1  UNL1       -0.4706
      2 C          64.1138   90.4887   13.4979 C.ar    1  UNL1        0.1397
      3 C          64.2844   91.3794   12.3031 C.ar    1  UNL1        0.0385
      4 C          65.2738   92.5061   12.3428 C.ar    1  UNL1        0.0228
      5 C          66.0927   92.7420   13.5772 C.ar    1  UNL1        0.0894
      6 N          67.1384   93.7655   13.9076 N.ar    1  UNL1       -0.2245
      7 C          67.6140   93.5072   15.3065 C.ar    1  UNL1        0.1567
      8 N          68.6581   94.2939   16.0422 N.pl3   1  UNL1       -0.3375
      9 S          66.8623   92.3242   15.8407 S.2     1  UNL1       -0.0519
     10 C          65.9221   91.8513   14.7720 C.ar    1  UNL1        0.0527
     11 C          64.9326   90.7246   14.7323 C.ar    1  UNL1        0.0450
     12 H          69.0977   95.0584   15.6045 H       1  UNL1        0.1442
     13 H          68.9037   94.0458   16.9627 H       1  UNL1        0.1442
     14 C          63.3179   88.2273   12.4966 C.3     1  UNL1        0.2320
     15 C          60.4910   87.7043    9.0347 C.ar    1  UNL1        0.0756
     16 C          60.9112   89.0805    9.4586 C.ar    1  UNL1        0.0062
     17 C          61.8535   89.2548   10.6125 C.ar    1  UNL1       -0.0005
     18 C          62.3756   88.0530   11.3426 C.ar    1  UNL1        0.0212
     19 C          61.9553   86.6769   10.9187 C.ar    1  UNL1       -0.0005
     20 C          61.0130   86.5025    9.7647 C.ar    1  UNL1        0.0062
     21 C          59.5486   87.5301    7.8807 C.2     1  UNL1        0.3413
     22 O          59.3705   86.1783    7.2554 O.2     1  UNL1       -0.2449
     23 C          59.3680   89.5497    6.2565 C.3     1  UNL1        0.2560
     24 O          58.7844   88.7075    7.3520 O.3     1  UNL1       -0.4413
@<TRIPOS>BOND
     1    23    24    1
     2    24    21    1
     3    21    22    2
     4    21    15    1
     5    15    16   ar
     6    16    17   ar
     7    17    18   ar
     8    18    14    1
     9    14     1    1
    10     1     2    1
    11     2     3   ar
    12     3     4   ar
    13     4     5   ar
    14     5     6   ar
    15     6     7   ar
    16     7     8    1
    17     7     9   ar
    18     9    10   ar
    19    10    11   ar
    20    18    19   ar
    21    19    20   ar
    22    20    15   ar
    23    11     2   ar
    24    10     5   ar
    25     8    12    1
    26     8    13    1
@<TRIPOS>MOLECULE
*****
 24 26 0 0 0
SMALL
GASTEIGER

@<TRIPOS>ATOM
      1 O          62.1620   89.2616   12.4780 O.3     1  UNL1       -0.4706
      2 C          63.3120   90.2212   12.5622 C.ar    1  UNL1        0.1397
      3 C          64.1549   90.2747   13.8018 C.ar    1  UNL1        0.0385
      4 C          65.3047   91.2342   13.8860 C.ar    1  UNL1        0.0228
      5 C          65.6116   92.1402   12.7305 C.ar    1  UNL1        0.0894
      6 N          66.6721   93.1811   12.5254 N.ar    1  UNL1       -0.2245
      7 C          66.4845   93.7709   11.1590 C.ar    1  UNL1        0.1567
      8 N          67.3256   94.8479   10.5405 N.pl3   1  UNL1       -0.3375
      9 S          65.3082   93.0944   10.5197 S.2     1  UNL1       -0.0519
     10 C          64.7687   92.0866   11.4910 C.ar    1  UNL1        0.0527
     11 C          63.6189   91.1271   11.4068 C.ar    1  UNL1        0.0450
     12 H          68.0808   95.2319   11.0421 H       1  UNL1        0.1442
     13 H          67.1225   95.1709    9.6330 H       1  UNL1        0.1442
     14 C          61.9328   88.4741   11.2222 C.3     1  UNL1        0.2320
     15 C          63.1551   84.1478   11.0243 C.ar    1  UNL1        0.0756
     16 C          63.1516   84.8668   12.3408 C.ar    1  UNL1        0.0062
     17 C          62.7442   86.3088   12.4068 C.ar    1  UNL1       -0.0005
     18 C          62.3402   87.0320   11.1562 C.ar    1  UNL1        0.0212
     19 C          62.3437   86.3130    9.8398 C.ar    1  UNL1       -0.0005
     20 C          62.7511   84.8710    9.7738 C.ar    1  UNL1        0.0062
     21 C          63.5625   82.7057   10.9584 C.2     1  UNL1        0.3413
     22 O          64.7776   82.3047   10.1756 O.2     1  UNL1       -0.2449
     23 C          63.2811   81.0433   12.9349 C.3     1  UNL1        0.2560
     24 O          62.7549   81.6646   11.6752 O.3     1  UNL1       -0.4413
@<TRIPOS>BOND
     1    23    24    1
     2    24    21    1
     3    21    22    2
     4    21    15    1
     5    15    16   ar
     6    16    17   ar
     7    17    18   ar
     8    18    14    1
     9    14     1    1
    10     1     2    1
    11     2     3   ar
    12     3     4   ar
    13     4     5   ar
    14     5     6   ar
    15     6     7   ar
    16     7     8    1
    17     7     9   ar
    18     9    10   ar
    19    10    11   ar
    20    18    19   ar
    21    19    20   ar
    22    20    15   ar
    23    11     2   ar
    24    10     5   ar
    25     8    12    1
    26     8    13    1
@<TRIPOS>MOLECULE
*****
 24 26 0 0 0
SMALL
GASTEIGER

@<TRIPOS>ATOM
      1 O          64.1793   89.7969   15.4196 O.3     1  UNL1       -0.4706
      2 C          63.8417   88.3578   15.6750 C.ar    1  UNL1        0.1397
      3 C          63.0656   87.9756   16.9003 C.ar    1  UNL1        0.0385
      4 C          62.7281   86.5366   17.1557 C.ar    1  UNL1        0.0228
      5 C          63.1665   85.4798   16.1856 C.ar    1  UNL1        0.0894
      6 N          62.9820   83.9912   16.1718 N.ar    1  UNL1       -0.2245
      7 C          63.6440   83.4535   14.9379 C.ar    1  UNL1        0.1567
      8 N          63.7023   82.0125   14.5252 N.pl3   1  UNL1       -0.3375
      9 S          64.2376   84.6098   14.1891 S.2     1  UNL1       -0.0519
     10 C          63.9425   85.8621   14.9602 C.ar    1  UNL1        0.0527
     11 C          64.2801   87.3011   14.7049 C.ar    1  UNL1        0.0450
     12 H          63.2803   81.3224   15.0863 H       1  UNL1        0.1442
     13 H          64.1625   81.7570   13.6932 H       1  UNL1        0.1442
     14 C          63.5816   90.5102   14.2432 C.3     1  UNL1        0.2320
     15 C          66.2464   92.6641   11.3261 C.ar    1  UNL1        0.0756
     16 C          66.7010   92.4485   12.7393 C.ar    1  UNL1        0.0062
     17 C          65.8127   91.7306   13.7116 C.ar    1  UNL1       -0.0005
     18 C          64.4699   91.2282   13.2708 C.ar    1  UNL1        0.0212
     19 C          64.0153   91.4437   11.8577 C.ar    1  UNL1       -0.0005
     20 C          64.9036   92.1616   10.8854 C.ar    1  UNL1        0.0062
     21 C          67.1348   93.3821   10.3538 C.2     1  UNL1        0.3413
     22 O          67.9041   92.6057    9.3264 O.2     1  UNL1       -0.2449
     23 C          66.2341   95.6827   11.1571 C.3     1  UNL1        0.2560
     24 O          67.2537   94.8763   10.4088 O.3     1  UNL1       -0.4413
@<TRIPOS>BOND
     1    23    24    1
     2    24    21    1
     3    21    22    2
     4    21    15    1
     5    15    16   ar
     6    16    17   ar
     7    17    18   ar
     8    18    14    1
     9    14     1    1
    10     1     2    1
    11     2     3   ar
    12     3     4   ar
    13     4     5   ar
    14     5     6   ar
    15     6     7   ar
    16     7     8    1
    17     7     9   ar
    18     9    10   ar
    19    10    11   ar
    20    18    19   ar
    21    19    20   ar
    22    20    15   ar
    23    11     2   ar
    24    10     5   ar
    25     8    12    1
    26     8    13    1
@<TRIPOS>MOLECULE
*****
 24 26 0 0 0
SMALL
GASTEIGER

@<TRIPOS>ATOM
      1 O          64.8532   82.6211   11.7577 O.3     1  UNL1       -0.4706
      2 C          64.1395   83.1006   12.9869 C.ar    1  UNL1        0.1397
      3 C          62.9864   82.3159   13.5387 C.ar    1  UNL1        0.0385
      4 C          62.2727   82.7954   14.7678 C.ar    1  UNL1        0.0228
      5 C          62.7121   84.0597   15.4450 C.ar    1  UNL1        0.0894
      6 N          62.2050   84.7746   16.6623 N.ar    1  UNL1       -0.2245
      7 C          63.0448   86.0012   16.8628 C.ar    1  UNL1        0.1567
      8 N          62.8865   87.0080   17.9635 N.pl3   1  UNL1       -0.3375
      9 S          64.0708   86.0443   15.7694 S.2     1  UNL1       -0.0519
     10 C          63.8652   84.8444   14.8932 C.ar    1  UNL1        0.0527
     11 C          64.5788   84.3649   13.6641 C.ar    1  UNL1        0.0450
     12 H          62.1790   86.8924   18.6383 H       1  UNL1        0.1442
     13 H          63.4899   87.7844   18.0110 H       1  UNL1        0.1442
     14 C          64.1944   82.7358   10.4151 C.3     1  UNL1        0.2320
     15 C          61.7265   86.3654    9.4224 C.ar    1  UNL1        0.0756
     16 C          62.6514   85.7834    8.3949 C.ar    1  UNL1        0.0062
     17 C          63.4740   84.5736    8.7258 C.ar    1  UNL1       -0.0005
     18 C          63.3717   83.9457   10.0842 C.ar    1  UNL1        0.0212
     19 C          62.4468   84.5276   11.1117 C.ar    1  UNL1       -0.0005
     20 C          61.6241   85.7375   10.7808 C.ar    1  UNL1        0.0062
     21 C          60.9038   87.5753    9.0915 C.2     1  UNL1        0.3413
     22 O          59.9656   87.5472    7.9214 O.2     1  UNL1       -0.2449
     23 C          62.3722   89.3582   10.2808 C.3     1  UNL1        0.2560
     24 O          61.0194   88.8132    9.9306 O.3     1  UNL1       -0.4413
@<TRIPOS>BOND
     1    23    24    1
     2    24    21    1
     3    21    22    2
     4    21    15    1
     5    15    16   ar
     6    16    17   ar
     7    17    18   ar
     8    18    14    1
     9    14     1    1
    10     1     2    1
    11     2     3   ar
    12     3     4   ar
    13     4     5   ar
    14     5     6   ar
    15     6     7   ar
    16     7     8    1
    17     7     9   ar
    18     9    10   ar
    19    10    11   ar
    20    18    19   ar
    21    19    20   ar
    22    20    15   ar
    23    11     2   ar
    24    10     5   ar
    25     8    12    1
    26     8    13    1
@<TRIPOS>MOLECULE
*****
 24 26 0 0 0
SMALL
GASTEIGER

@<TRIPOS>ATOM
      1 O          62.3929   89.6639   13.2226 O.3     1  UNL1       -0.4706
      2 C          63.6042   90.5370   13.0790 C.ar    1  UNL1        0.1397
      3 C          64.5978   90.6312   14.1988 C.ar    1  UNL1        0.0385
      4 C          65.8090   91.5043   14.0552 C.ar    1  UNL1        0.0228
      5 C          66.0266   92.2832   12.7919 C.ar    1  UNL1        0.0894
      6 N          67.1183   93.2194   12.3654 N.ar    1  UNL1       -0.2245
      7 C          66.7993   93.7038   10.9821 C.ar    1  UNL1        0.1567
      8 N          67.6243   94.6576   10.1697 N.pl3   1  UNL1       -0.3375
      9 S          65.5106   93.0670   10.5536 S.2     1  UNL1       -0.0519
     10 C          65.0330   92.1890   11.6721 C.ar    1  UNL1        0.0527
     11 C          63.8218   91.3159   11.8157 C.ar    1  UNL1        0.0450
     12 H          68.4598   95.0242   10.5396 H       1  UNL1        0.1442
     13 H          67.3302   94.9171    9.2667 H       1  UNL1        0.1442
     14 C          61.2845   89.7475   12.2154 C.3     1  UNL1        0.2320
     15 C          61.0768   86.7719    8.8461 C.ar    1  UNL1        0.0756
     16 C          60.1527   87.9534    8.8613 C.ar    1  UNL1        0.0062
     17 C          60.2219   88.9452    9.9844 C.ar    1  UNL1       -0.0005
     18 C          61.2152   88.7556   11.0923 C.ar    1  UNL1        0.0212
     19 C          62.1393   87.5742   11.0770 C.ar    1  UNL1       -0.0005
     20 C          62.0701   86.5823    9.9539 C.ar    1  UNL1        0.0062
     21 C          61.0075   85.7800    7.7229 C.2     1  UNL1        0.3413
     22 O          59.6889   85.4645    7.0813 O.2     1  UNL1       -0.2449
     23 C          62.2653   84.3985    5.9177 C.3     1  UNL1        0.2560
     24 O          62.2568   85.1037    7.2415 O.3     1  UNL1       -0.4413
@<TRIPOS>BOND
     1    23    24    1
     2    24    21    1
     3    21    22    2
     4    21    15    1
     5    15    16   ar
     6    16    17   ar
     7    17    18   ar
     8    18    14    1
     9    14     1    1
    10     1     2    1
    11     2     3   ar
    12     3     4   ar
    13     4     5   ar
    14     5     6   ar
    15     6     7   ar
    16     7     8    1
    17     7     9   ar
    18     9    10   ar
    19    10    11   ar
    20    18    19   ar
    21    19    20   ar
    22    20    15   ar
    23    11     2   ar
    24    10     5   ar
    25     8    12    1
    26     8    13    1
@<TRIPOS>MOLECULE
*****
 24 26 0 0 0
SMALL
GASTEIGER

@<TRIPOS>ATOM
      1 O          64.5578   88.8303   14.6125 O.3     1  UNL1       -0.4706
      2 C          64.1064   87.4947   14.1000 C.ar    1  UNL1        0.1397
      3 C          63.3726   87.4012   12.7951 C.ar    1  UNL1        0.0385
      4 C          62.9212   86.0657   12.2826 C.ar    1  UNL1        0.0228
      5 C          63.2037   84.8237   13.0750 C.ar    1  UNL1        0.0894
      6 N          62.8842   83.3795   12.8254 N.ar    1  UNL1       -0.2245
      7 C          63.4206   82.5806   13.9760 C.ar    1  UNL1        0.1567
      8 N          63.3231   81.0924   14.1376 N.pl3   1  UNL1       -0.3375
      9 S          64.0716   83.5310   14.9367 S.2     1  UNL1       -0.0519
     10 C          63.9375   84.9173   14.3798 C.ar    1  UNL1        0.0527
     11 C          64.3889   86.2528   14.8923 C.ar    1  UNL1        0.0450
     12 H          62.8740   80.5509   13.4489 H       1  UNL1        0.1442
     13 H          63.7082   80.6573   14.9323 H       1  UNL1        0.1442
     14 C          63.8423   90.0779   14.1867 C.3     1  UNL1        0.2320
     15 C          65.8667   93.0033   11.4310 C.ar    1  UNL1        0.0756
     16 C          64.7221   92.1720   10.9323 C.ar    1  UNL1        0.0062
     17 C          64.0473   91.1968   11.8508 C.ar    1  UNL1       -0.0005
     18 C          64.5171   91.0531   13.2681 C.ar    1  UNL1        0.0212
     19 C          65.6617   91.8844   13.7668 C.ar    1  UNL1       -0.0005
     20 C          66.3365   92.8596   12.8482 C.ar    1  UNL1        0.0062
     21 C          66.5415   93.9785   10.5124 C.2     1  UNL1        0.3413
     22 O          65.8308   95.2323   10.0966 O.2     1  UNL1       -0.2449
     23 C          68.3189   92.3037    9.6259 C.3     1  UNL1        0.2560
     24 O          67.9270   93.6998   10.0096 O.3     1  UNL1       -0.4413
@<TRIPOS>BOND
     1    23    24    1
     2    24    21    1
     3    21    22    2
     4    21    15    1
     5    15    16   ar
     6    16    17   ar
     7    17    18   ar
     8    18    14    1
     9    14     1    1
    10     1     2    1
    11     2     3   ar
    12     3     4   ar
    13     4     5   ar
    14     5     6   ar
    15     6     7   ar
    16     7     8    1
    17     7     9   ar
    18     9    10   ar
    19    10    11   ar
    20    18    19   ar
    21    19    20   ar
    22    20    15   ar
    23    11     2   ar
    24    10     5   ar
    25     8    12    1
    26     8    13    1
