@<TRIPOS>MOLECULE
*****
 31 34 0 0 0
SMALL
GASTEIGER

@<TRIPOS>ATOM
      1 N          62.3261   89.1459    9.7918 N.am    1  UNL1       -0.2791
      2 C          62.0551   89.9454   11.0317 C.2     1  UNL1        0.2526
      3 O          60.6422   90.2375   11.4419 O.2     1  UNL1       -0.2697
      4 H          63.2534   88.9543    9.5225 H       1  UNL1        0.1552
      5 C          59.3612   89.0431    7.1556 C.ar    1  UNL1        0.1071
      6 C          58.9001   87.6234    7.3028 C.ar    1  UNL1        0.0199
      7 C          59.5810   86.7112    8.2797 C.ar    1  UNL1        0.0201
      8 C          60.7229   87.2187    9.1094 C.ar    1  UNL1        0.0790
      9 C          61.1840   88.6384    8.9621 C.ar    1  UNL1        0.0682
     10 C          60.5032   89.5506    7.9852 C.ar    1  UNL1        0.0345
     11 N          61.4037   86.3064   10.0862 N.ar    1  UNL1       -0.2852
     12 C          62.3570   85.2004    9.7428 C.ar    1  UNL1        0.1023
     13 C          62.7933   84.5504   11.0224 C.ar    1  UNL1        0.1196
     14 N          62.1096   85.2548   12.1566 N.ar    1  UNL1       -0.2220
     15 C          61.2509   86.3401   11.5780 C.ar    1  UNL1        0.1829
     16 C          57.9996   90.8676    5.2019 C.3     1  UNL1        0.1816
     17 S          58.6804   89.9554    6.1787 S.O2    1  UNL1        0.0105
     18 O          57.3439   89.4811    6.6673 O.2     1  UNL1       -0.1686
     19 O          60.0169   90.4297    5.6902 O.2     1  UNL1       -0.1686
     20 C          63.1971   90.4530   11.8613 C.ar    1  UNL1        0.0919
     21 C          63.4961   89.8247   13.1901 C.ar    1  UNL1        0.1066
     22 N          64.6381   90.3322   14.0197 N.ar    1  UNL1       -0.2249
     23 C          65.4810   91.4681   13.5205 C.ar    1  UNL1        0.1623
     24 N          65.1820   92.0964   12.1917 N.ar    1  UNL1       -0.2249
     25 C          64.0401   91.5889   11.3621 C.ar    1  UNL1        0.1066
     26 C          66.6231   91.9757   14.3502 C.ar    1  UNL1        0.0358
     27 C          66.3698   92.5064   15.7300 C.ar    1  UNL1        0.0030
     28 C          67.5118   93.0139   16.5596 C.ar    1  UNL1        0.0001
     29 C          68.9070   92.9907   16.0093 C.ar    1  UNL1        0.0000
     30 C          69.1603   92.4599   14.6295 C.ar    1  UNL1        0.0001
     31 C          68.0183   91.9524   13.7999 C.ar    1  UNL1        0.0030
@<TRIPOS>BOND
     1    16    17    1
     2    17    18    2
     3    17    19    2
     4    17     5    1
     5     5     6   ar
     6     6     7   ar
     7     7     8   ar
     8     8    11    1
     9    11    12   ar
    10    12    13   ar
    11    13    14   ar
    12    14    15   ar
    13     8     9   ar
    14     9     1    1
    15     1     2   am
    16     2     3    2
    17     2    20    1
    18    20    21   ar
    19    21    22   ar
    20    22    23   ar
    21    23    26    1
    22    26    27   ar
    23    27    28   ar
    24    28    29   ar
    25    29    30   ar
    26    30    31   ar
    27    23    24   ar
    28    24    25   ar
    29     9    10   ar
    30    10     5   ar
    31    15    11   ar
    32    25    20   ar
    33    31    26   ar
    34     1     4    1
@<TRIPOS>MOLECULE
*****
 31 34 0 0 0
SMALL
GASTEIGER

@<TRIPOS>ATOM
      1 N          71.1854   74.2062   13.8369 N.am    1  UNL1       -0.2791
      2 C          72.3998   75.0736   13.6861 C.2     1  UNL1        0.2526
      3 O          73.6313   74.7866   14.4930 O.2     1  UNL1       -0.2697
      4 H          70.3772   74.3946   13.3073 H       1  UNL1        0.1552
      5 C          71.3202   72.1484   17.2276 C.ar    1  UNL1        0.1071
      6 C          71.2364   70.7431   16.7099 C.ar    1  UNL1        0.0199
      7 C          71.1355   70.4922   15.2345 C.ar    1  UNL1        0.0201
      8 C          71.1185   71.6465   14.2768 C.ar    1  UNL1        0.0790
      9 C          71.2024   73.0518   14.7945 C.ar    1  UNL1        0.0682
     10 C          71.3033   73.3027   16.2700 C.ar    1  UNL1        0.0345
     11 N          71.0177   71.3956   12.8014 N.ar    1  UNL1       -0.2852
     12 C          69.7478   71.2409   12.0181 C.ar    1  UNL1        0.1023
     13 C          70.1142   71.0050   10.5828 C.ar    1  UNL1        0.1196
     14 N          71.6106   71.0138   10.4790 N.ar    1  UNL1       -0.2220
     15 C          72.1689   71.2553   11.8501 C.ar    1  UNL1        0.1829
     16 C          71.5220   72.6503   20.1785 C.3     1  UNL1        0.1816
     17 S          71.4211   72.3993   18.7030 S.O2    1  UNL1        0.0105
     18 O          72.7694   73.0258   18.5043 O.2     1  UNL1       -0.1686
     19 O          70.0728   71.7728   18.9018 O.2     1  UNL1       -0.1686
     20 C          72.3829   76.2280   12.7284 C.ar    1  UNL1        0.0919
     21 C          71.1191   77.0075   12.5157 C.ar    1  UNL1        0.1066
     22 N          71.1022   78.1618   11.5581 N.ar    1  UNL1       -0.2249
     23 C          72.3490   78.5367   10.8132 C.ar    1  UNL1        0.1623
     24 N          73.6127   77.7573   11.0259 N.ar    1  UNL1       -0.2249
     25 C          73.6297   76.6029   11.9835 C.ar    1  UNL1        0.1066
     26 C          72.3320   79.6912    9.8555 C.ar    1  UNL1        0.0358
     27 C          72.2212   81.0943   10.3741 C.ar    1  UNL1        0.0030
     28 C          72.2042   82.2486    9.4164 C.ar    1  UNL1        0.0001
     29 C          72.2980   81.9998    7.9402 C.ar    1  UNL1        0.0000
     30 C          72.4088   80.5967    7.4216 C.ar    1  UNL1        0.0001
     31 C          72.4258   79.4424    8.3792 C.ar    1  UNL1        0.0030
@<TRIPOS>BOND
     1    16    17    1
     2    17    18    2
     3    17    19    2
     4    17     5    1
     5     5     6   ar
     6     6     7   ar
     7     7     8   ar
     8     8    11    1
     9    11    12   ar
    10    12    13   ar
    11    13    14   ar
    12    14    15   ar
    13     8     9   ar
    14     9     1    1
    15     1     2   am
    16     2     3    2
    17     2    20    1
    18    20    21   ar
    19    21    22   ar
    20    22    23   ar
    21    23    26    1
    22    26    27   ar
    23    27    28   ar
    24    28    29   ar
    25    29    30   ar
    26    30    31   ar
    27    23    24   ar
    28    24    25   ar
    29     9    10   ar
    30    10     5   ar
    31    15    11   ar
    32    25    20   ar
    33    31    26   ar
    34     1     4    1
@<TRIPOS>MOLECULE
*****
 31 34 0 0 0
SMALL
GASTEIGER

@<TRIPOS>ATOM
      1 N          61.8771   86.2850   11.5973 N.am    1  UNL1       -0.2791
      2 C          61.9475   86.0853   10.1123 C.2     1  UNL1        0.2526
      3 O          62.7344   84.9408    9.5459 O.2     1  UNL1       -0.2697
      4 H          61.3606   87.0362   11.9690 H       1  UNL1        0.1552
      5 C          63.0614   82.9194   13.3352 C.ar    1  UNL1        0.1071
      6 C          64.0268   83.4505   14.3530 C.ar    1  UNL1        0.0199
      7 C          64.2756   84.9263   14.4523 C.ar    1  UNL1        0.0201
      8 C          63.5591   85.8712   13.5337 C.ar    1  UNL1        0.0790
      9 C          62.5937   85.3402   12.5159 C.ar    1  UNL1        0.0682
     10 C          62.3449   83.8643   12.4167 C.ar    1  UNL1        0.0345
     11 N          63.8080   87.3471   13.6330 N.ar    1  UNL1       -0.2852
     12 C          64.3694   88.0685   14.8222 C.ar    1  UNL1        0.1023
     13 C          64.4475   89.5280   14.4846 C.ar    1  UNL1        0.1196
     14 N          63.9344   89.7085   13.0867 N.ar    1  UNL1       -0.2220
     15 C          63.5391   88.3606   12.5604 C.ar    1  UNL1        0.1829
     16 C          62.5637   79.9677   13.1367 C.3     1  UNL1        0.1816
     17 S          62.8125   81.4436   13.2360 S.O2    1  UNL1        0.0105
     18 O          62.2997   81.4352   14.6456 O.2     1  UNL1       -0.1686
     19 O          63.3253   81.4519   11.8264 O.2     1  UNL1       -0.1686
     20 C          61.2309   87.0302    9.1937 C.ar    1  UNL1        0.0919
     21 C          60.4679   86.4982    8.0170 C.ar    1  UNL1        0.1066
     22 N          59.7514   87.4430    7.0984 N.ar    1  UNL1       -0.2249
     23 C          59.7978   88.9199    7.3566 C.ar    1  UNL1        0.1623
     24 N          60.5608   89.4519    8.5333 N.ar    1  UNL1       -0.2249
     25 C          61.2773   88.5071    9.4519 C.ar    1  UNL1        0.1066
     26 C          59.0812   89.8648    6.4380 C.ar    1  UNL1        0.0358
     27 C          57.5851   89.8244    6.3389 C.ar    1  UNL1        0.0030
     28 C          56.8686   90.7692    5.4203 C.ar    1  UNL1        0.0001
     29 C          57.6482   91.7544    4.6008 C.ar    1  UNL1        0.0000
     30 C          59.1443   91.7948    4.6999 C.ar    1  UNL1        0.0001
     31 C          59.8609   90.8500    5.6185 C.ar    1  UNL1        0.0030
@<TRIPOS>BOND
     1    16    17    1
     2    17    18    2
     3    17    19    2
     4    17     5    1
     5     5     6   ar
     6     6     7   ar
     7     7     8   ar
     8     8    11    1
     9    11    12   ar
    10    12    13   ar
    11    13    14   ar
    12    14    15   ar
    13     8     9   ar
    14     9     1    1
    15     1     2   am
    16     2     3    2
    17     2    20    1
    18    20    21   ar
    19    21    22   ar
    20    22    23   ar
    21    23    26    1
    22    26    27   ar
    23    27    28   ar
    24    28    29   ar
    25    29    30   ar
    26    30    31   ar
    27    23    24   ar
    28    24    25   ar
    29     9    10   ar
    30    10     5   ar
    31    15    11   ar
    32    25    20   ar
    33    31    26   ar
    34     1     4    1
@<TRIPOS>MOLECULE
*****
 31 34 0 0 0
SMALL
GASTEIGER

@<TRIPOS>ATOM
      1 N          62.6197   87.4222   11.7394 N.am    1  UNL1       -0.2791
      2 C          61.6932   86.7915   10.7425 C.2     1  UNL1        0.2526
      3 O          61.3789   85.3276   10.8323 O.2     1  UNL1       -0.2697
      4 H          62.8260   88.3831   11.6804 H       1  UNL1        0.1552
      5 C          63.8554   84.2604   13.7951 C.ar    1  UNL1        0.1071
      6 C          64.4563   84.9225   14.9995 C.ar    1  UNL1        0.0199
      7 C          64.4449   86.4178   15.1172 C.ar    1  UNL1        0.0201
      8 C          63.8327   87.2511   14.0305 C.ar    1  UNL1        0.0790
      9 C          63.2319   86.5890   12.8261 C.ar    1  UNL1        0.0682
     10 C          63.2433   85.0937   12.7084 C.ar    1  UNL1        0.0345
     11 N          63.8214   88.7464   14.1482 N.ar    1  UNL1       -0.2852
     12 C          63.9622   89.7210   13.0167 C.ar    1  UNL1        0.1023
     13 C          63.8950   91.1066   13.5873 C.ar    1  UNL1        0.1196
     14 N          63.7128   90.9884   15.0715 N.ar    1  UNL1       -0.2220
     15 C          63.6672   89.5297   15.4181 C.ar    1  UNL1        0.1829
     16 C          63.8782   81.2698   13.5596 C.3     1  UNL1        0.1816
     17 S          63.8668   82.7651   13.6773 S.O2    1  UNL1        0.0105
     18 O          64.2768   82.8814   12.2392 O.2     1  UNL1       -0.1686
     19 O          63.4569   82.6488   15.1155 O.2     1  UNL1       -0.1686
     20 C          61.0810   87.6248    9.6558 C.ar    1  UNL1        0.0919
     21 C          61.1706   89.1208    9.7171 C.ar    1  UNL1        0.1066
     22 N          60.5584   89.9540    8.6304 N.ar    1  UNL1       -0.2249
     23 C          59.8566   89.2911    7.4823 C.ar    1  UNL1        0.1623
     24 N          59.7670   87.7951    7.4210 N.ar    1  UNL1       -0.2249
     25 C          60.3792   86.9619    8.5077 C.ar    1  UNL1        0.1066
     26 C          59.2443   90.1244    6.3956 C.ar    1  UNL1        0.0358
     27 C          60.1210   90.9375    5.4899 C.ar    1  UNL1        0.0030
     28 C          59.5088   91.7707    4.4032 C.ar    1  UNL1        0.0001
     29 C          58.0199   91.7907    4.2222 C.ar    1  UNL1        0.0000
     30 C          57.1432   90.9776    5.1279 C.ar    1  UNL1        0.0001
     31 C          57.7554   90.1444    6.2145 C.ar    1  UNL1        0.0030
@<TRIPOS>BOND
     1    16    17    1
     2    17    18    2
     3    17    19    2
     4    17     5    1
     5     5     6   ar
     6     6     7   ar
     7     7     8   ar
     8     8    11    1
     9    11    12   ar
    10    12    13   ar
    11    13    14   ar
    12    14    15   ar
    13     8     9   ar
    14     9     1    1
    15     1     2   am
    16     2     3    2
    17     2    20    1
    18    20    21   ar
    19    21    22   ar
    20    22    23   ar
    21    23    26    1
    22    26    27   ar
    23    27    28   ar
    24    28    29   ar
    25    29    30   ar
    26    30    31   ar
    27    23    24   ar
    28    24    25   ar
    29     9    10   ar
    30    10     5   ar
    31    15    11   ar
    32    25    20   ar
    33    31    26   ar
    34     1     4    1
@<TRIPOS>MOLECULE
*****
 31 34 0 0 0
SMALL
GASTEIGER

@<TRIPOS>ATOM
      1 N          63.7151   85.7454   13.1997 N.am    1  UNL1       -0.2791
      2 C          62.8672   86.8254   12.5959 C.2     1  UNL1        0.2526
      3 O          61.4732   86.5159   12.1366 O.2     1  UNL1       -0.2697
      4 H          64.6300   85.9486   13.5011 H       1  UNL1        0.1552
      5 C          62.7668   81.9832   12.3650 C.ar    1  UNL1        0.1071
      6 C          62.0769   81.5767   13.6333 C.ar    1  UNL1        0.0199
      7 C          61.9330   82.5598   14.7571 C.ar    1  UNL1        0.0201
      8 C          62.4790   83.9493   14.6126 C.ar    1  UNL1        0.0790
      9 C          63.1690   84.3558   13.3443 C.ar    1  UNL1        0.0682
     10 C          63.3129   83.3728   12.2205 C.ar    1  UNL1        0.0345
     11 N          62.3351   84.9324   15.7364 N.ar    1  UNL1       -0.2852
     12 C          63.4280   85.3813   16.6605 C.ar    1  UNL1        0.1023
     13 C          62.8414   86.3655   17.6286 C.ar    1  UNL1        0.1196
     14 N          61.3859   86.5249   17.3028 N.ar    1  UNL1       -0.2220
     15 C          61.0731   85.6392   16.1333 C.ar    1  UNL1        0.1829
     16 C          63.0546   80.0171   10.1174 C.3     1  UNL1        0.1816
     17 S          62.9107   81.0002   11.2412 S.O2    1  UNL1        0.0105
     18 O          63.3025   82.1145   10.3166 O.2     1  UNL1       -0.1686
     19 O          62.5189   79.8859   12.1658 O.2     1  UNL1       -0.1686
     20 C          63.4133   88.2150   12.4513 C.ar    1  UNL1        0.0919
     21 C          64.2389   88.8146   13.5508 C.ar    1  UNL1        0.1066
     22 N          64.7849   90.2041   13.4061 N.ar    1  UNL1       -0.2249
     23 C          64.5054   90.9941   12.1620 C.ar    1  UNL1        0.1623
     24 N          63.6798   90.3946   11.0626 N.ar    1  UNL1       -0.2249
     25 C          63.1338   89.0050   11.2072 C.ar    1  UNL1        0.1066
     26 C          65.0515   92.3837   12.0175 C.ar    1  UNL1        0.0358
     27 C          65.7639   93.0330   13.1668 C.ar    1  UNL1        0.0030
     28 C          66.3099   94.4225   13.0222 C.ar    1  UNL1        0.0001
     29 C          66.1436   95.1628   11.7282 C.ar    1  UNL1        0.0000
     30 C          65.4313   94.5136   10.5789 C.ar    1  UNL1        0.0001
     31 C          64.8852   93.1240   10.7235 C.ar    1  UNL1        0.0030
@<TRIPOS>BOND
     1    16    17    1
     2    17    18    2
     3    17    19    2
     4    17     5    1
     5     5     6   ar
     6     6     7   ar
     7     7     8   ar
     8     8    11    1
     9    11    12   ar
    10    12    13   ar
    11    13    14   ar
    12    14    15   ar
    13     8     9   ar
    14     9     1    1
    15     1     2   am
    16     2     3    2
    17     2    20    1
    18    20    21   ar
    19    21    22   ar
    20    22    23   ar
    21    23    26    1
    22    26    27   ar
    23    27    28   ar
    24    28    29   ar
    25    29    30   ar
    26    30    31   ar
    27    23    24   ar
    28    24    25   ar
    29     9    10   ar
    30    10     5   ar
    31    15    11   ar
    32    25    20   ar
    33    31    26   ar
    34     1     4    1
@<TRIPOS>MOLECULE
*****
 31 34 0 0 0
SMALL
GASTEIGER

@<TRIPOS>ATOM
      1 N          65.5123   91.6690   12.1530 N.am    1  UNL1       -0.2791
      2 C          64.3223   91.2039   12.9388 C.2     1  UNL1        0.2526
      3 O          63.4049   92.2062   13.5743 O.2     1  UNL1       -0.2697
      4 H          66.1144   91.0112   11.7359 H       1  UNL1        0.1552
      5 C          65.7001   95.3060   10.5757 C.ar    1  UNL1        0.1071
      6 C          66.3299   96.0711   11.7017 C.ar    1  UNL1        0.0199
      7 C          66.6872   95.3689   12.9781 C.ar    1  UNL1        0.0201
      8 C          66.4147   93.9015   13.1285 C.ar    1  UNL1        0.0790
      9 C          65.7849   93.1364   12.0026 C.ar    1  UNL1        0.0682
     10 C          65.4276   93.8386   10.7261 C.ar    1  UNL1        0.0345
     11 N          66.7720   93.1993   14.4050 N.ar    1  UNL1       -0.2852
     12 C          68.0809   92.5322   14.7077 C.ar    1  UNL1        0.1023
     13 C          68.0009   91.9615   16.0926 C.ar    1  UNL1        0.1196
     14 N          66.6426   92.2760   16.6458 N.ar    1  UNL1       -0.2220
     15 C          65.8831   93.0410   15.6028 C.ar    1  UNL1        0.1829
     16 C          64.9855   96.7104    8.0229 C.3     1  UNL1        0.1816
     17 S          65.3428   96.0082    9.2993 S.O2    1  UNL1        0.0105
     18 O          64.2678   96.7680   10.0182 O.2     1  UNL1       -0.1686
     19 O          66.4178   95.2483    8.5803 O.2     1  UNL1       -0.1686
     20 C          64.0498   89.7365   13.0892 C.ar    1  UNL1        0.0919
     21 C          64.5573   88.9989   14.2926 C.ar    1  UNL1        0.1066
     22 N          64.2847   87.5316   14.4430 N.ar    1  UNL1       -0.2249
     23 C          63.5046   86.8019   13.3899 C.ar    1  UNL1        0.1623
     24 N          62.9971   87.5395   12.1865 N.ar    1  UNL1       -0.2249
     25 C          63.2696   89.0069   12.0362 C.ar    1  UNL1        0.1066
     26 C          63.2320   85.3345   13.5403 C.ar    1  UNL1        0.0358
     27 C          63.2074   84.7123   14.9049 C.ar    1  UNL1        0.0030
     28 C          62.9349   83.2450   15.0552 C.ar    1  UNL1        0.0001
     29 C          62.6869   82.3999   13.8410 C.ar    1  UNL1        0.0000
     30 C          62.7115   83.0222   12.4764 C.ar    1  UNL1        0.0001
     31 C          62.9841   84.4895   12.3261 C.ar    1  UNL1        0.0030
@<TRIPOS>BOND
     1    16    17    1
     2    17    18    2
     3    17    19    2
     4    17     5    1
     5     5     6   ar
     6     6     7   ar
     7     7     8   ar
     8     8    11    1
     9    11    12   ar
    10    12    13   ar
    11    13    14   ar
    12    14    15   ar
    13     8     9   ar
    14     9     1    1
    15     1     2   am
    16     2     3    2
    17     2    20    1
    18    20    21   ar
    19    21    22   ar
    20    22    23   ar
    21    23    26    1
    22    26    27   ar
    23    27    28   ar
    24    28    29   ar
    25    29    30   ar
    26    30    31   ar
    27    23    24   ar
    28    24    25   ar
    29     9    10   ar
    30    10     5   ar
    31    15    11   ar
    32    25    20   ar
    33    31    26   ar
    34     1     4    1
@<TRIPOS>MOLECULE
*****
 31 34 0 0 0
SMALL
GASTEIGER

@<TRIPOS>ATOM
      1 N          65.3535   89.5034   13.3691 N.am    1  UNL1       -0.2791
      2 C          64.3641   88.8828   14.3102 C.2     1  UNL1        0.2526
      3 O          63.7523   89.7057   15.4050 O.2     1  UNL1       -0.2697
      4 H          65.7551   88.9633   12.6505 H       1  UNL1        0.1552
      5 C          67.1875   92.7849   14.6414 C.ar    1  UNL1        0.1071
      6 C          66.4867   93.8339   13.8300 C.ar    1  UNL1        0.0199
      7 C          65.4082   93.4395   12.8650 C.ar    1  UNL1        0.0201
      8 C          65.0305   91.9960   12.7114 C.ar    1  UNL1        0.0790
      9 C          65.7312   90.9470   13.5227 C.ar    1  UNL1        0.0682
     10 C          66.8098   91.3414   14.4877 C.ar    1  UNL1        0.0345
     11 N          63.9520   91.6016   11.7463 N.ar    1  UNL1       -0.2852
     12 C          62.6526   90.9401   12.0984 C.ar    1  UNL1        0.1023
     13 C          61.8810   90.7291   10.8295 C.ar    1  UNL1        0.1196
     14 N          62.7036   91.2602    9.6931 N.ar    1  UNL1       -0.2220
     15 C          63.9835   91.7995   10.2598 C.ar    1  UNL1        0.1829
     16 C          69.3445   93.5737   16.5714 C.3     1  UNL1        0.1816
     17 S          68.2660   93.1793   15.6064 S.O2    1  UNL1        0.0105
     18 O          67.2293   93.4381   16.6592 O.2     1  UNL1       -0.1686
     19 O          69.3026   92.9205   14.5536 O.2     1  UNL1       -0.1686
     20 C          63.9863   87.4393   14.1566 C.ar    1  UNL1        0.0919
     21 C          64.3139   86.4585   15.2432 C.ar    1  UNL1        0.1066
     22 N          63.9362   85.0151   15.0895 N.ar    1  UNL1       -0.2249
     23 C          63.2309   84.5523   13.8492 C.ar    1  UNL1        0.1623
     24 N          62.9033   85.5330   12.7626 N.ar    1  UNL1       -0.2249
     25 C          63.2810   86.9765   12.9162 C.ar    1  UNL1        0.1066
     26 C          62.8532   83.1087   13.6956 C.ar    1  UNL1        0.0358
     27 C          61.7558   82.5270   14.5365 C.ar    1  UNL1        0.0030
     28 C          61.3781   81.0836   14.3829 C.ar    1  UNL1        0.0001
     29 C          62.0978   80.2218   13.3882 C.ar    1  UNL1        0.0000
     30 C          63.1952   80.8035   12.5473 C.ar    1  UNL1        0.0001
     31 C          63.5729   82.2470   12.7009 C.ar    1  UNL1        0.0030
@<TRIPOS>BOND
     1    16    17    1
     2    17    18    2
     3    17    19    2
     4    17     5    1
     5     5     6   ar
     6     6     7   ar
     7     7     8   ar
     8     8    11    1
     9    11    12   ar
    10    12    13   ar
    11    13    14   ar
    12    14    15   ar
    13     8     9   ar
    14     9     1    1
    15     1     2   am
    16     2     3    2
    17     2    20    1
    18    20    21   ar
    19    21    22   ar
    20    22    23   ar
    21    23    26    1
    22    26    27   ar
    23    27    28   ar
    24    28    29   ar
    25    29    30   ar
    26    30    31   ar
    27    23    24   ar
    28    24    25   ar
    29     9    10   ar
    30    10     5   ar
    31    15    11   ar
    32    25    20   ar
    33    31    26   ar
    34     1     4    1
@<TRIPOS>MOLECULE
*****
 31 34 0 0 0
SMALL
GASTEIGER

@<TRIPOS>ATOM
      1 N          59.6572   94.1305   -1.6789 N.am    1  UNL1       -0.2791
      2 C          58.8176   95.3013   -1.2615 C.2     1  UNL1        0.2526
      3 O          59.3545   96.2955   -0.2749 O.2     1  UNL1       -0.2697
      4 H          59.3048   93.4780   -2.3264 H       1  UNL1        0.1552
      5 C          62.5931   93.0936    0.7819 C.ar    1  UNL1        0.1071
      6 C          63.7868   93.6006    0.0284 C.ar    1  UNL1        0.0199
      7 C          63.6041   94.2843   -1.2941 C.ar    1  UNL1        0.0201
      8 C          62.2276   94.4610   -1.8633 C.ar    1  UNL1        0.0790
      9 C          61.0338   93.9539   -1.1098 C.ar    1  UNL1        0.0682
     10 C          61.2165   93.2702    0.2127 C.ar    1  UNL1        0.0345
     11 N          62.0449   95.1447   -3.1858 N.ar    1  UNL1       -0.2852
     12 C          61.8054   96.6106   -3.3949 C.ar    1  UNL1        0.1023
     13 C          61.6821   96.8544   -4.8698 C.ar    1  UNL1        0.1196
     14 N          61.8452   95.5392   -5.5723 N.ar    1  UNL1       -0.2220
     15 C          62.0695   94.4825   -4.5315 C.ar    1  UNL1        0.1829
     16 C          62.9585   91.7262    3.4270 C.3     1  UNL1        0.1816
     17 S          62.7758   92.4099    2.1044 S.O2    1  UNL1        0.0105
     18 O          61.3016   92.5134    2.3616 O.2     1  UNL1       -0.1686
     19 O          64.2500   92.3064    1.8472 O.2     1  UNL1       -0.1686
     20 C          57.4410   95.4779   -1.8306 C.ar    1  UNL1        0.0919
     21 C          57.1785   96.5586   -2.8371 C.ar    1  UNL1        0.1066
     22 N          55.8019   96.7352   -3.4061 N.ar    1  UNL1       -0.2249
     23 C          54.6879   95.8311   -2.9687 C.ar    1  UNL1        0.1623
     24 N          54.9503   94.7504   -1.9622 N.ar    1  UNL1       -0.2249
     25 C          56.3269   94.5738   -1.3931 C.ar    1  UNL1        0.1066
     26 C          53.3112   96.0077   -3.5378 C.ar    1  UNL1        0.0358
     27 C          53.1257   96.1604   -5.0184 C.ar    1  UNL1        0.0030
     28 C          51.7491   96.3370   -5.5874 C.ar    1  UNL1        0.0001
     29 C          50.5581   96.3609   -4.6759 C.ar    1  UNL1        0.0000
     30 C          50.7437   96.2083   -3.1953 C.ar    1  UNL1        0.0001
     31 C          52.1202   96.0316   -2.6262 C.ar    1  UNL1        0.0030
@<TRIPOS>BOND
     1    16    17    1
     2    17    18    2
     3    17    19    2
     4    17     5    1
     5     5     6   ar
     6     6     7   ar
     7     7     8   ar
     8     8    11    1
     9    11    12   ar
    10    12    13   ar
    11    13    14   ar
    12    14    15   ar
    13     8     9   ar
    14     9     1    1
    15     1     2   am
    16     2     3    2
    17     2    20    1
    18    20    21   ar
    19    21    22   ar
    20    22    23   ar
    21    23    26    1
    22    26    27   ar
    23    27    28   ar
    24    28    29   ar
    25    29    30   ar
    26    30    31   ar
    27    23    24   ar
    28    24    25   ar
    29     9    10   ar
    30    10     5   ar
    31    15    11   ar
    32    25    20   ar
    33    31    26   ar
    34     1     4    1
@<TRIPOS>MOLECULE
*****
 31 34 0 0 0
SMALL
GASTEIGER

@<TRIPOS>ATOM
      1 N          64.0129   86.9648   13.6216 N.am    1  UNL1       -0.2791
      2 C          63.2813   87.8805   12.6855 C.2     1  UNL1        0.2526
      3 O          62.0334   87.4102   11.9989 O.2     1  UNL1       -0.2697
      4 H          64.8320   87.2736   14.0722 H       1  UNL1        0.1552
      5 C          63.0020   83.1748   13.0189 C.ar    1  UNL1        0.1071
      6 C          62.4641   82.8066   14.3698 C.ar    1  UNL1        0.0199
      7 C          62.4424   83.8245   15.4714 C.ar    1  UNL1        0.0201
      8 C          62.9587   85.2106   15.2220 C.ar    1  UNL1        0.0790
      9 C          63.4966   85.5787   13.8710 C.ar    1  UNL1        0.0682
     10 C          63.5182   84.5608   12.7695 C.ar    1  UNL1        0.0345
     11 N          62.9371   86.2285   16.3235 N.ar    1  UNL1       -0.2852
     12 C          62.5728   85.9704   17.7555 C.ar    1  UNL1        0.1023
     13 C          62.6865   87.2656   18.5035 C.ar    1  UNL1        0.1196
     14 N          63.1211   88.3242   17.5338 N.ar    1  UNL1       -0.2220
     15 C          63.2760   87.6833   16.1865 C.ar    1  UNL1        0.1829
     16 C          63.0452   81.1389   10.8158 C.3     1  UNL1        0.1816
     17 S          63.0236   82.1568   11.9173 S.O2    1  UNL1        0.0105
     18 O          63.7568   83.1251   11.0370 O.2     1  UNL1       -0.1686
     19 O          62.2904   81.1886   12.7977 O.2     1  UNL1       -0.1686
     20 C          63.7977   89.2667   12.4361 C.ar    1  UNL1        0.0919
     21 C          63.4469   89.9800   11.1641 C.ar    1  UNL1        0.1066
     22 N          63.9632   91.3661   10.9147 N.ar    1  UNL1       -0.2249
     23 C          64.8303   92.0388   11.9373 C.ar    1  UNL1        0.1623
     24 N          65.1811   91.3254   13.2093 N.ar    1  UNL1       -0.2249
     25 C          64.6647   89.9393   13.4587 C.ar    1  UNL1        0.1066
     26 C          65.3466   93.4249   11.6878 C.ar    1  UNL1        0.0358
     27 C          65.1619   94.0633   10.3431 C.ar    1  UNL1        0.0030
     28 C          65.6782   95.4494   10.0937 C.ar    1  UNL1        0.0001
     29 C          66.3792   96.1970   11.1890 C.ar    1  UNL1        0.0000
     30 C          66.5639   95.5585   12.5337 C.ar    1  UNL1        0.0001
     31 C          66.0476   94.1725   12.7831 C.ar    1  UNL1        0.0030
@<TRIPOS>BOND
     1    16    17    1
     2    17    18    2
     3    17    19    2
     4    17     5    1
     5     5     6   ar
     6     6     7   ar
     7     7     8   ar
     8     8    11    1
     9    11    12   ar
    10    12    13   ar
    11    13    14   ar
    12    14    15   ar
    13     8     9   ar
    14     9     1    1
    15     1     2   am
    16     2     3    2
    17     2    20    1
    18    20    21   ar
    19    21    22   ar
    20    22    23   ar
    21    23    26    1
    22    26    27   ar
    23    27    28   ar
    24    28    29   ar
    25    29    30   ar
    26    30    31   ar
    27    23    24   ar
    28    24    25   ar
    29     9    10   ar
    30    10     5   ar
    31    15    11   ar
    32    25    20   ar
    33    31    26   ar
    34     1     4    1
