@<TRIPOS>MOLECULE
*****
 29 32 0 0 0
SMALL
GASTEIGER

@<TRIPOS>ATOM
      1 C          62.9336   90.6662   12.4849 C.3     1  UNL1        0.0510
      2 N          62.5131   90.1570   13.8316 N.3     1  UNL1       -0.3227
      3 C          62.8913   90.9696   11.0164 C.3     1  UNL1        0.0654
      4 C          64.0354   91.6890   10.3659 C.3     1  UNL1        0.2034
      5 N          65.2220   92.1052   11.1839 N.pl3   1  UNL1       -0.1931
      6 C          65.2644   91.8019   12.6522 C.3     1  UNL1        0.2034
      7 C          64.1201   91.0824   13.3027 C.3     1  UNL1        0.0654
      8 H          61.5979   89.7131   13.7567 H       1  UNL1        0.1188
      9 H          62.4606   90.9357   14.4883 H       1  UNL1        0.1188
     10 C          66.3662   92.8247   10.5333 C.2     1  UNL1        0.3205
     11 N          67.5703   92.0575   10.0734 N.2     1  UNL1        0.0097
     12 C          68.7145   92.7769    9.4229 C.2     1  UNL1        0.4717
     13 N          68.6546   94.2636    9.2322 N.2     1  UNL1        0.0158
     14 C          67.4505   95.0307    9.6922 C.2     1  UNL1        0.3714
     15 N          67.1100   96.4906    9.6390 N.2     1  UNL1       -0.0339
     16 C          65.7554   96.6734   10.2567 C.2     1  UNL1        0.2323
     17 C          65.2587   95.3265   10.6916 C.2     1  UNL1        0.0486
     18 C          66.3063   94.3113   10.3427 C.3     1  UNL1        0.2428
     19 C          61.6010   90.0733   12.1346 C.3     1  UNL1        0.0408
     20 C          61.3160   86.9003    8.9564 C.ar    1  UNL1       -0.0228
     21 C          60.4808   88.1420    8.8535 C.ar    1  UNL1       -0.0046
     22 C          60.5758   89.1996    9.9130 C.ar    1  UNL1       -0.0045
     23 C          61.5060   89.0156   11.0752 C.ar    1  UNL1       -0.0209
     24 C          62.3413   87.7739   11.1780 C.ar    1  UNL1       -0.0045
     25 C          62.2462   86.7162   10.1186 C.ar    1  UNL1       -0.0046
     26 C          62.6415   85.4439    8.1679 C.3     1  UNL1        0.0044
     27 C          61.2211   85.8425    7.8970 C.3     1  UNL1        0.0189
     28 C          59.8007   86.2413    7.6262 C.3     1  UNL1        0.0044
     29 C          61.1262   84.7848    6.8376 C.3     1  UNL1        0.0044
@<TRIPOS>BOND
     1    26    27    1
     2    27    28    1
     3    27    29    1
     4    27    20    1
     5    20    21   ar
     6    21    22   ar
     7    22    23   ar
     8    23    19    1
     9    19     1    1
    10     1     2    1
    11     1     3    1
    12     3     4    1
    13     4     5    1
    14     5    10    1
    15    10    11    2
    16    11    12    1
    17    12    13    2
    18    13    14    1
    19    14    15    2
    20    15    16    1
    21    16    17    2
    22    17    18    1
    23     5     6    1
    24     6     7    1
    25    23    24   ar
    26    24    25   ar
    27    25    20   ar
    28     7     1    1
    29    18    10    1
    30    18    14    1
    31     2     8    1
    32     2     9    1
@<TRIPOS>MOLECULE
*****
 29 32 0 0 0
SMALL
GASTEIGER

@<TRIPOS>ATOM
      1 C          63.1001   90.3657   12.5798 C.3     1  UNL1        0.0510
      2 N          63.0440   89.5212   13.8181 N.3     1  UNL1       -0.3227
      3 C          62.7154   90.9476   11.2518 C.3     1  UNL1        0.0654
      4 C          63.5805   91.9926   10.6119 C.3     1  UNL1        0.2034
      5 N          64.8304   92.4557   11.2999 N.pl3   1  UNL1       -0.1931
      6 C          65.2152   91.8739   12.6279 C.3     1  UNL1        0.2034
      7 C          64.3500   90.8289   13.2678 C.3     1  UNL1        0.0654
      8 H          62.2113   88.9328   13.7910 H       1  UNL1        0.1188
      9 H          63.0073   90.1245   14.6398 H       1  UNL1        0.1188
     10 C          65.6956   93.5007   10.6599 C.2     1  UNL1        0.3205
     11 N          65.2691   94.9387   10.6736 N.2     1  UNL1        0.0097
     12 C          66.1341   95.9837   10.0337 C.2     1  UNL1        0.4717
     13 N          67.4258   95.5907    9.3800 N.2     1  UNL1        0.0158
     14 C          67.8523   94.1527    9.3663 C.2     1  UNL1        0.3714
     15 N          69.0630   93.4702    8.8021 N.2     1  UNL1       -0.0339
     16 C          68.9462   92.0034    9.0934 C.2     1  UNL1        0.2323
     17 C          67.6632   91.7793    9.8376 C.2     1  UNL1        0.0486
     18 C          66.9872   93.1077   10.0063 C.3     1  UNL1        0.2428
     19 C          61.8307   89.6093   12.3218 C.3     1  UNL1        0.0408
     20 C          61.6300   86.6343    8.9515 C.ar    1  UNL1       -0.0228
     21 C          62.4024   86.3077   10.1952 C.ar    1  UNL1       -0.0046
     22 C          62.4693   87.2994   11.3186 C.ar    1  UNL1       -0.0045
     23 C          61.7638   88.6177   11.1984 C.ar    1  UNL1       -0.0209
     24 C          60.9915   88.9443    9.9547 C.ar    1  UNL1       -0.0045
     25 C          60.9246   87.9526    8.8312 C.ar    1  UNL1       -0.0046
     26 C          63.0002   85.2818    8.0610 C.3     1  UNL1        0.0044
     27 C          61.5631   85.6427    7.8280 C.3     1  UNL1        0.0189
     28 C          60.1260   86.0037    7.5950 C.3     1  UNL1        0.0044
     29 C          61.4962   84.6511    6.7045 C.3     1  UNL1        0.0044
@<TRIPOS>BOND
     1    26    27    1
     2    27    28    1
     3    27    29    1
     4    27    20    1
     5    20    21   ar
     6    21    22   ar
     7    22    23   ar
     8    23    19    1
     9    19     1    1
    10     1     2    1
    11     1     3    1
    12     3     4    1
    13     4     5    1
    14     5    10    1
    15    10    11    2
    16    11    12    1
    17    12    13    2
    18    13    14    1
    19    14    15    2
    20    15    16    1
    21    16    17    2
    22    17    18    1
    23     5     6    1
    24     6     7    1
    25    23    24   ar
    26    24    25   ar
    27    25    20   ar
    28     7     1    1
    29    18    10    1
    30    18    14    1
    31     2     8    1
    32     2     9    1
@<TRIPOS>MOLECULE
*****
 29 32 0 0 0
SMALL
GASTEIGER

@<TRIPOS>ATOM
      1 C          61.3794   88.5214   10.0472 C.3     1  UNL1        0.0510
      2 N          60.6648   89.2199    8.9286 N.3     1  UNL1       -0.3227
      3 C          62.0558   88.3015   11.3679 C.3     1  UNL1        0.0654
      4 C          62.5942   86.9461   11.7183 C.3     1  UNL1        0.2034
      5 N          62.4563   85.8104   10.7480 N.pl3   1  UNL1       -0.1931
      6 C          61.7799   86.0303    9.4273 C.3     1  UNL1        0.2034
      7 C          61.2415   87.3858    9.0769 C.3     1  UNL1        0.0654
      8 H          60.5118   90.1965    9.1802 H       1  UNL1        0.1188
      9 H          59.7661   88.7665    8.7637 H       1  UNL1        0.1188
     10 C          62.9947   84.4550   11.0984 C.2     1  UNL1        0.3205
     11 N          63.5986   83.5894   10.0326 N.2     1  UNL1        0.0097
     12 C          64.1371   82.2340   10.3830 C.2     1  UNL1        0.4717
     13 N          64.0716   81.7440   11.7993 N.2     1  UNL1        0.0158
     14 C          63.4676   82.6096   12.8651 C.2     1  UNL1        0.3714
     15 N          63.2665   82.3970   14.3362 N.2     1  UNL1       -0.0339
     16 C          62.6037   83.6211   14.8950 C.2     1  UNL1        0.2323
     17 C          62.3952   84.5903   13.7692 C.2     1  UNL1        0.0486
     18 C          62.9292   83.9651   12.5146 C.3     1  UNL1        0.2428
     19 C          61.2691   89.8996   10.6290 C.3     1  UNL1        0.0408
     20 C          64.8478   91.8136   12.5733 C.ar    1  UNL1       -0.0228
     21 C          63.8795   91.0207   13.4002 C.ar    1  UNL1       -0.0046
     22 C          62.6866   90.3827   12.7521 C.ar    1  UNL1       -0.0045
     23 C          62.4620   90.5375   11.2771 C.ar    1  UNL1       -0.0209
     24 C          63.4303   91.3304   10.4502 C.ar    1  UNL1       -0.0045
     25 C          64.6232   91.9684   11.0983 C.ar    1  UNL1       -0.0046
     26 C          65.9904   91.4305   14.3190 C.3     1  UNL1        0.0044
     27 C          66.0407   92.4516   13.2213 C.3     1  UNL1        0.0189
     28 C          66.0909   93.4725   12.1236 C.3     1  UNL1        0.0044
     29 C          67.2336   93.0896   13.8694 C.3     1  UNL1        0.0044
@<TRIPOS>BOND
     1    26    27    1
     2    27    28    1
     3    27    29    1
     4    27    20    1
     5    20    21   ar
     6    21    22   ar
     7    22    23   ar
     8    23    19    1
     9    19     1    1
    10     1     2    1
    11     1     3    1
    12     3     4    1
    13     4     5    1
    14     5    10    1
    15    10    11    2
    16    11    12    1
    17    12    13    2
    18    13    14    1
    19    14    15    2
    20    15    16    1
    21    16    17    2
    22    17    18    1
    23     5     6    1
    24     6     7    1
    25    23    24   ar
    26    24    25   ar
    27    25    20   ar
    28     7     1    1
    29    18    10    1
    30    18    14    1
    31     2     8    1
    32     2     9    1
@<TRIPOS>MOLECULE
*****
 29 32 0 0 0
SMALL
GASTEIGER

@<TRIPOS>ATOM
      1 C          61.6242   89.1825   10.2163 C.3     1  UNL1        0.0510
      2 N          60.8647   89.2303    8.9237 N.3     1  UNL1       -0.3227
      3 C          62.1315   88.6798   11.5354 C.3     1  UNL1        0.0654
      4 C          63.1013   89.5038   12.3293 C.3     1  UNL1        0.2034
      5 N          63.5639   90.8307   11.8042 N.pl3   1  UNL1       -0.1931
      6 C          63.0567   91.3334   10.4851 C.3     1  UNL1        0.2034
      7 C          62.0868   90.5093    9.6912 C.3     1  UNL1        0.0654
      8 H          60.3055   88.3827    8.8265 H       1  UNL1        0.1188
      9 H          61.5212   89.2956    8.1458 H       1  UNL1        0.1188
     10 C          64.5338   91.6547   12.5982 C.2     1  UNL1        0.3205
     11 N          64.6948   91.4126   14.0697 N.2     1  UNL1        0.0097
     12 C          65.6645   92.2365   14.8637 C.2     1  UNL1        0.4717
     13 N          66.4735   93.3027   14.1861 N.2     1  UNL1        0.0158
     14 C          66.3125   93.5448   12.7146 C.2     1  UNL1        0.3714
     15 N          66.9680   94.5178   11.7799 N.2     1  UNL1       -0.0339
     16 C          66.4033   94.2951   10.4083 C.2     1  UNL1        0.2323
     17 C          65.3987   93.1845   10.4952 C.2     1  UNL1        0.0486
     18 C          65.3427   92.7208   11.9206 C.3     1  UNL1        0.2428
     19 C          60.8979   87.8724   10.2926 C.3     1  UNL1        0.0408
     20 C          63.1477   84.1085   11.3034 C.ar    1  UNL1       -0.0228
     21 C          62.3962   84.8434   12.3736 C.ar    1  UNL1       -0.0046
     22 C          61.6463   86.0980   12.0366 C.ar    1  UNL1       -0.0045
     23 C          61.6478   86.6177   10.6296 C.ar    1  UNL1       -0.0209
     24 C          62.3993   85.8828    9.5594 C.ar    1  UNL1       -0.0045
     25 C          63.1492   84.6282    9.8964 C.ar    1  UNL1       -0.0046
     26 C          64.2690   82.6882   10.1965 C.3     1  UNL1        0.0044
     27 C          63.8976   82.8538   11.6403 C.3     1  UNL1        0.0189
     28 C          63.5262   83.0195   13.0841 C.3     1  UNL1        0.0044
     29 C          64.6476   81.5992   11.9771 C.3     1  UNL1        0.0044
@<TRIPOS>BOND
     1    26    27    1
     2    27    28    1
     3    27    29    1
     4    27    20    1
     5    20    21   ar
     6    21    22   ar
     7    22    23   ar
     8    23    19    1
     9    19     1    1
    10     1     2    1
    11     1     3    1
    12     3     4    1
    13     4     5    1
    14     5    10    1
    15    10    11    2
    16    11    12    1
    17    12    13    2
    18    13    14    1
    19    14    15    2
    20    15    16    1
    21    16    17    2
    22    17    18    1
    23     5     6    1
    24     6     7    1
    25    23    24   ar
    26    24    25   ar
    27    25    20   ar
    28     7     1    1
    29    18    10    1
    30    18    14    1
    31     2     8    1
    32     2     9    1
@<TRIPOS>MOLECULE
*****
 29 32 0 0 0
SMALL
GASTEIGER

@<TRIPOS>ATOM
      1 C          62.0622   88.9799   12.0108 C.3     1  UNL1        0.0510
      2 N          61.1044   89.9926   11.4568 N.3     1  UNL1       -0.3227
      3 C          63.1857   88.3938   12.8136 C.3     1  UNL1        0.0654
      4 C          63.4995   86.9309   12.7078 C.3     1  UNL1        0.2034
      5 N          62.6898   86.0539   11.7993 N.pl3   1  UNL1       -0.1931
      6 C          61.5663   86.6399   10.9965 C.3     1  UNL1        0.2034
      7 C          61.2525   88.1029   11.1023 C.3     1  UNL1        0.0654
      8 H          61.3061   90.9075   11.8600 H       1  UNL1        0.1188
      9 H          60.1495   89.7210   11.6907 H       1  UNL1        0.1188
     10 C          63.0036   84.5909   11.6935 C.2     1  UNL1        0.3205
     11 N          63.4524   84.0128   10.3842 N.2     1  UNL1        0.0097
     12 C          63.7662   82.5499   10.2784 C.2     1  UNL1        0.4717
     13 N          63.6312   81.6649   11.4820 N.2     1  UNL1        0.0158
     14 C          63.1824   82.2429   12.7914 C.2     1  UNL1        0.3714
     15 N          62.9588   81.6223   14.1385 N.2     1  UNL1       -0.0339
     16 C          62.5068   82.7017   15.0768 C.2     1  UNL1        0.2323
     17 C          62.4510   83.9895   14.3096 C.2     1  UNL1        0.0486
     18 C          62.8686   83.7059   12.8971 C.3     1  UNL1        0.2428
     19 C          62.5393   90.2085   12.7269 C.3     1  UNL1        0.0408
     20 C          65.7014   92.8128   10.8643 C.ar    1  UNL1       -0.0228
     21 C          65.7436   92.5168   12.3342 C.ar    1  UNL1       -0.0046
     22 C          64.6896   91.6487   12.9551 C.ar    1  UNL1       -0.0045
     23 C          63.5933   91.0766   12.1061 C.ar    1  UNL1       -0.0209
     24 C          63.5510   91.3726   10.6361 C.ar    1  UNL1       -0.0045
     25 C          64.6051   92.2407   10.0153 C.ar    1  UNL1       -0.0046
     26 C          65.8966   94.8888   10.4747 C.3     1  UNL1        0.0044
     27 C          66.7554   93.6808   10.2434 C.3     1  UNL1        0.0189
     28 C          67.6140   92.4729   10.0121 C.3     1  UNL1        0.0044
     29 C          67.8093   94.5490    9.6224 C.3     1  UNL1        0.0044
@<TRIPOS>BOND
     1    26    27    1
     2    27    28    1
     3    27    29    1
     4    27    20    1
     5    20    21   ar
     6    21    22   ar
     7    22    23   ar
     8    23    19    1
     9    19     1    1
    10     1     2    1
    11     1     3    1
    12     3     4    1
    13     4     5    1
    14     5    10    1
    15    10    11    2
    16    11    12    1
    17    12    13    2
    18    13    14    1
    19    14    15    2
    20    15    16    1
    21    16    17    2
    22    17    18    1
    23     5     6    1
    24     6     7    1
    25    23    24   ar
    26    24    25   ar
    27    25    20   ar
    28     7     1    1
    29    18    10    1
    30    18    14    1
    31     2     8    1
    32     2     9    1
@<TRIPOS>MOLECULE
*****
 29 32 0 0 0
SMALL
GASTEIGER

@<TRIPOS>ATOM
      1 C          62.4746   89.5158   10.9056 C.3     1  UNL1        0.0510
      2 N          62.0382   90.2338    9.6631 N.3     1  UNL1       -0.3227
      3 C          62.9961   89.2905   12.2940 C.3     1  UNL1        0.0654
      4 C          63.1213   87.8957   12.8310 C.3     1  UNL1        0.2034
      5 N          62.7250   86.7258   11.9797 N.pl3   1  UNL1       -0.1931
      6 C          62.2035   86.9510   10.5914 C.3     1  UNL1        0.2034
      7 C          62.0783   88.3460   10.0544 C.3     1  UNL1        0.0654
      8 H          62.1479   91.2392    9.7952 H       1  UNL1        0.1188
      9 H          61.0589   90.0206    9.4735 H       1  UNL1        0.1188
     10 C          62.8502   85.3309   12.5168 C.2     1  UNL1        0.3205
     11 N          62.5182   85.0471   13.9518 N.2     1  UNL1        0.0097
     12 C          62.6434   83.6523   14.4889 C.2     1  UNL1        0.4717
     13 N          63.1005   82.5410   13.5910 N.2     1  UNL1        0.0158
     14 C          63.4325   82.8247   12.1560 C.2     1  UNL1        0.3714
     15 N          63.9044   81.9393   11.0410 N.2     1  UNL1       -0.0339
     16 C          64.0709   82.7870    9.8148 C.2     1  UNL1        0.2323
     17 C          63.7019   84.1964   10.1719 C.2     1  UNL1        0.0486
     18 C          63.3073   84.2197   11.6189 C.3     1  UNL1        0.2428
     19 C          62.7194   90.9349   11.3254 C.3     1  UNL1        0.0408
     20 C          66.3853   91.9722   13.7202 C.ar    1  UNL1       -0.0228
     21 C          65.2147   91.3135   14.3881 C.ar    1  UNL1       -0.0046
     22 C          63.9928   90.9678   13.5898 C.ar    1  UNL1       -0.0045
     23 C          63.9413   91.2806   12.1237 C.ar    1  UNL1       -0.0209
     24 C          65.1119   91.9393   11.4558 C.ar    1  UNL1       -0.0045
     25 C          66.3339   92.2850   12.2542 C.ar    1  UNL1       -0.0046
     26 C          66.7373   92.7923   15.6446 C.3     1  UNL1        0.0044
     27 C          67.6073   92.3180   14.5185 C.3     1  UNL1        0.0189
     28 C          68.4771   91.8437   13.3923 C.3     1  UNL1        0.0044
     29 C          68.8293   92.6638   15.3168 C.3     1  UNL1        0.0044
@<TRIPOS>BOND
     1    26    27    1
     2    27    28    1
     3    27    29    1
     4    27    20    1
     5    20    21   ar
     6    21    22   ar
     7    22    23   ar
     8    23    19    1
     9    19     1    1
    10     1     2    1
    11     1     3    1
    12     3     4    1
    13     4     5    1
    14     5    10    1
    15    10    11    2
    16    11    12    1
    17    12    13    2
    18    13    14    1
    19    14    15    2
    20    15    16    1
    21    16    17    2
    22    17    18    1
    23     5     6    1
    24     6     7    1
    25    23    24   ar
    26    24    25   ar
    27    25    20   ar
    28     7     1    1
    29    18    10    1
    30    18    14    1
    31     2     8    1
    32     2     9    1
@<TRIPOS>MOLECULE
*****
 29 32 0 0 0
SMALL
GASTEIGER

@<TRIPOS>ATOM
      1 C          61.4631   89.0100   10.0151 C.3     1  UNL1        0.0510
      2 N          60.5771   89.0359    8.8051 N.3     1  UNL1       -0.3227
      3 C          62.1159   88.5210   11.2740 C.3     1  UNL1        0.0654
      4 C          63.1329   89.3745   11.9719 C.3     1  UNL1        0.2034
      5 N          63.4973   90.7171   11.4108 N.pl3   1  UNL1       -0.1931
      6 C          62.8446   91.2062   10.1519 C.3     1  UNL1        0.2034
      7 C          61.8275   90.3526    9.4540 C.3     1  UNL1        0.0654
      8 H          60.0388   88.1707    8.7593 H       1  UNL1        0.1188
      9 H          61.1500   89.1247    7.9659 H       1  UNL1        0.1188
     10 C          64.5144   91.5707   12.1087 C.2     1  UNL1        0.3205
     11 N          65.4656   92.4099   11.3081 N.2     1  UNL1        0.0097
     12 C          66.4826   93.2634   12.0059 C.2     1  UNL1        0.4717
     13 N          66.5486   93.2777   13.5045 N.2     1  UNL1        0.0158
     14 C          65.5974   92.4385   14.3051 C.2     1  UNL1        0.3714
     15 N          65.4256   92.2493   15.7831 N.2     1  UNL1       -0.0339
     16 C          64.3024   91.2788   15.9987 C.2     1  UNL1        0.2323
     17 C          63.7799   90.8682   14.6539 C.2     1  UNL1        0.0486
     18 C          64.5803   91.5849   13.6072 C.3     1  UNL1        0.2428
     19 C          60.7910   87.6764   10.1559 C.3     1  UNL1        0.0408
     20 C          63.1979   84.0556   11.3166 C.ar    1  UNL1       -0.0228
     21 C          62.3942   84.7854   12.3519 C.ar    1  UNL1       -0.0046
     22 C          61.5920   85.9923   11.9649 C.ar    1  UNL1       -0.0045
     23 C          61.5933   86.4695   10.5429 C.ar    1  UNL1       -0.0209
     24 C          62.3970   85.7398    9.5077 C.ar    1  UNL1       -0.0045
     25 C          63.1993   84.5328    9.8946 C.ar    1  UNL1       -0.0046
     26 C          63.9735   82.3750   10.2805 C.3     1  UNL1        0.0044
     27 C          64.0002   82.8487   11.7035 C.3     1  UNL1        0.0189
     28 C          64.0269   83.3225   13.1263 C.3     1  UNL1        0.0044
     29 C          64.8025   81.6417   12.0902 C.3     1  UNL1        0.0044
@<TRIPOS>BOND
     1    26    27    1
     2    27    28    1
     3    27    29    1
     4    27    20    1
     5    20    21   ar
     6    21    22   ar
     7    22    23   ar
     8    23    19    1
     9    19     1    1
    10     1     2    1
    11     1     3    1
    12     3     4    1
    13     4     5    1
    14     5    10    1
    15    10    11    2
    16    11    12    1
    17    12    13    2
    18    13    14    1
    19    14    15    2
    20    15    16    1
    21    16    17    2
    22    17    18    1
    23     5     6    1
    24     6     7    1
    25    23    24   ar
    26    24    25   ar
    27    25    20   ar
    28     7     1    1
    29    18    10    1
    30    18    14    1
    31     2     8    1
    32     2     9    1
@<TRIPOS>MOLECULE
*****
 29 32 0 0 0
SMALL
GASTEIGER

@<TRIPOS>ATOM
      1 C          61.4122   88.8341   10.0767 C.3     1  UNL1        0.0510
      2 N          60.4988   89.2545    8.9636 N.3     1  UNL1       -0.3227
      3 C          62.4231   88.9253   11.1812 C.3     1  UNL1        0.0654
      4 C          62.8359   87.6893   11.9240 C.3     1  UNL1        0.2034
      5 N          62.2378   86.3620   11.5624 N.pl3   1  UNL1       -0.1931
      6 C          61.2269   86.2707   10.4580 C.3     1  UNL1        0.2034
      7 C          60.8141   87.5068    9.7152 C.3     1  UNL1        0.0654
      8 H          60.5779   90.2613    8.8209 H       1  UNL1        0.1188
      9 H          59.5364   89.0201    9.2067 H       1  UNL1        0.1188
     10 C          62.6506   85.1260   12.3053 C.2     1  UNL1        0.3205
     11 N          62.3747   85.0069   13.7749 N.2     1  UNL1        0.0097
     12 C          62.7875   83.7710   14.5177 C.2     1  UNL1        0.4717
     13 N          63.4763   82.6540   13.7911 N.2     1  UNL1        0.0158
     14 C          63.7523   82.7731   12.3215 C.2     1  UNL1        0.3714
     15 N          64.4096   81.8432   11.3452 N.2     1  UNL1       -0.0339
     16 C          64.4029   82.5045    9.9988 C.2     1  UNL1        0.2323
     17 C          63.7416   83.8431   10.1431 C.2     1  UNL1        0.0486
     18 C          63.3394   84.0091   11.5786 C.3     1  UNL1        0.2428
     19 C          61.6931   90.3073   10.0517 C.3     1  UNL1        0.0408
     20 C          65.0163   92.0067   12.5654 C.ar    1  UNL1       -0.0228
     21 C          65.0626   92.1392   11.0719 C.ar    1  UNL1       -0.0046
     22 C          63.9549   91.5727   10.2341 C.ar    1  UNL1       -0.0045
     23 C          62.8009   90.8738   10.8896 C.ar    1  UNL1       -0.0209
     24 C          62.7546   90.7413   12.3830 C.ar    1  UNL1       -0.0045
     25 C          63.8623   91.3078   13.2209 C.ar    1  UNL1       -0.0046
     26 C          66.0920   91.3506   14.2719 C.3     1  UNL1        0.0044
     27 C          66.1241   92.5731   13.4033 C.3     1  UNL1        0.0189
     28 C          66.1560   93.7955   12.5347 C.3     1  UNL1        0.0044
     29 C          67.2318   93.1395   14.2413 C.3     1  UNL1        0.0044
@<TRIPOS>BOND
     1    26    27    1
     2    27    28    1
     3    27    29    1
     4    27    20    1
     5    20    21   ar
     6    21    22   ar
     7    22    23   ar
     8    23    19    1
     9    19     1    1
    10     1     2    1
    11     1     3    1
    12     3     4    1
    13     4     5    1
    14     5    10    1
    15    10    11    2
    16    11    12    1
    17    12    13    2
    18    13    14    1
    19    14    15    2
    20    15    16    1
    21    16    17    2
    22    17    18    1
    23     5     6    1
    24     6     7    1
    25    23    24   ar
    26    24    25   ar
    27    25    20   ar
    28     7     1    1
    29    18    10    1
    30    18    14    1
    31     2     8    1
    32     2     9    1
@<TRIPOS>MOLECULE
*****
 29 32 0 0 0
SMALL
GASTEIGER

@<TRIPOS>ATOM
      1 C          63.4742   89.3503   12.9249 C.3     1  UNL1        0.0510
      2 N          62.9092   90.3891   12.0022 N.3     1  UNL1       -0.3227
      3 C          64.2230   88.7430   14.0740 C.3     1  UNL1        0.0654
      4 C          64.2464   87.2537   14.2508 C.3     1  UNL1        0.2034
      5 N          63.5210   86.3715   13.2783 N.pl3   1  UNL1       -0.1931
      6 C          62.7722   86.9787   12.1291 C.3     1  UNL1        0.2034
      7 C          62.7488   88.4681   11.9525 C.3     1  UNL1        0.0654
      8 H          63.1895   91.3163   12.3217 H       1  UNL1        0.1188
      9 H          61.8913   90.3238   11.9992 H       1  UNL1        0.1188
     10 C          63.5444   84.8821   13.4551 C.2     1  UNL1        0.3205
     11 N          63.4338   84.2879   14.8279 N.2     1  UNL1        0.0097
     12 C          63.4572   82.7987   15.0047 C.2     1  UNL1        0.4717
     13 N          63.5912   81.9034   13.8086 N.2     1  UNL1        0.0158
     14 C          63.7018   82.4975   12.4357 C.2     1  UNL1        0.3714
     15 N          63.8433   81.8719   11.0798 N.2     1  UNL1       -0.0339
     16 C          63.9074   82.9747   10.0650 C.2     1  UNL1        0.2323
     17 C          63.8054   84.2818   10.7937 C.2     1  UNL1        0.0486
     18 C          63.6784   83.9869   12.2590 C.3     1  UNL1        0.2428
     19 C          64.0034   90.5931   13.5769 C.3     1  UNL1        0.0408
     20 C          66.1119   93.7070   11.1053 C.ar    1  UNL1       -0.0228
     21 C          65.1368   92.7692   10.4575 C.ar    1  UNL1       -0.0046
     22 C          64.4340   91.7312   11.2813 C.ar    1  UNL1       -0.0045
     23 C          64.7062   91.6311   12.7530 C.ar    1  UNL1       -0.0209
     24 C          65.6813   92.5690   13.4009 C.ar    1  UNL1       -0.0045
     25 C          66.3841   93.6069   12.5770 C.ar    1  UNL1       -0.0046
     26 C          67.5072   93.6622    9.5082 C.3     1  UNL1        0.0044
     27 C          66.8147   94.7450   10.2815 C.3     1  UNL1        0.0189
     28 C          66.1223   95.8277   11.0549 C.3     1  UNL1        0.0044
     29 C          67.5176   95.7830    9.4577 C.3     1  UNL1        0.0044
@<TRIPOS>BOND
     1    26    27    1
     2    27    28    1
     3    27    29    1
     4    27    20    1
     5    20    21   ar
     6    21    22   ar
     7    22    23   ar
     8    23    19    1
     9    19     1    1
    10     1     2    1
    11     1     3    1
    12     3     4    1
    13     4     5    1
    14     5    10    1
    15    10    11    2
    16    11    12    1
    17    12    13    2
    18    13    14    1
    19    14    15    2
    20    15    16    1
    21    16    17    2
    22    17    18    1
    23     5     6    1
    24     6     7    1
    25    23    24   ar
    26    24    25   ar
    27    25    20   ar
    28     7     1    1
    29    18    10    1
    30    18    14    1
    31     2     8    1
    32     2     9    1
