@<TRIPOS>MOLECULE
*****
 34 38 0 0 0
SMALL
GASTEIGER

@<TRIPOS>ATOM
      1 C          63.9475   87.9927   14.2531 C.ar    1  UNL1        0.1043
      2 N          64.0194   86.7179   13.4659 N.ar    1  UNL1       -0.2304
      3 C          63.5972   85.5937   14.3647 C.ar    1  UNL1        0.1240
      4 N          63.2643   86.1738   15.7074 N.ar    1  UNL1       -0.2885
      5 C          62.7920   85.5434   16.9839 C.ar    1  UNL1        0.1020
      6 C          62.5363   86.3957   18.1914 C.ar    1  UNL1        0.1193
      7 N          62.7528   87.8784   18.1224 N.ar    1  UNL1       -0.2265
      8 C          63.2251   88.5088   16.8459 C.ar    1  UNL1        0.1432
      9 N          63.4416   89.9915   16.7769 N.pl3   1  UNL1       -0.3414
     10 C          63.4808   87.6565   15.6384 C.ar    1  UNL1        0.1142
     11 H          63.2737   90.5509   17.5694 H       1  UNL1        0.1438
     12 H          63.7516   90.4052   15.9390 H       1  UNL1        0.1438
     13 C          63.5212   84.1440   13.9872 C.3     1  UNL1        0.0619
     14 C          63.8772   82.8522   14.6616 C.3     1  UNL1        0.0345
     15 C          63.4137   82.0937   13.4534 C.3     1  UNL1        0.0892
     16 C          62.9501   81.3352   12.2452 C.3     1  UNL1        0.0293
     17 O          63.7697   80.8020   14.1277 O.3     1  UNL1       -0.3867
     18 C          63.0576   83.3854   12.7791 C.3     1  UNL1        0.0345
     19 H          63.5638   80.0611   13.5365 H       1  UNL1        0.2102
     20 C          63.5055   89.9516   12.6044 C.ar    1  UNL1        0.1432
     21 C          63.8413   91.3221   12.0956 C.ar    1  UNL1        0.0744
     22 C          64.9549   92.1043   12.7266 C.ar    1  UNL1        0.1483
     23 C          65.7326   91.5161   13.8663 C.ar    1  UNL1        0.0377
     24 C          65.3968   90.1455   14.3751 C.ar    1  UNL1        0.0077
     25 C          64.2833   89.3633   13.7442 C.ar    1  UNL1        0.0534
     26 C          62.3156   89.0438   10.4807 C.3     1  UNL1        0.2525
     27 O          62.3920   89.1693   11.9735 O.3     1  UNL1       -0.4713
     28 O          65.2907   93.4749   12.2177 O.3     1  UNL1       -0.4534
     29 C          66.2746   93.6388   11.0974 C.ar    1  UNL1        0.1453
     30 C          67.0881   92.4660   10.6362 C.ar    1  UNL1        0.0375
     31 C          68.0719   92.6298    9.5159 C.ar    1  UNL1        0.0031
     32 C          68.2424   93.9665    8.8568 C.ar    1  UNL1        0.0002
     33 C          67.4288   95.1394    9.3182 C.ar    1  UNL1        0.0031
     34 C          66.4449   94.9755   10.4385 C.ar    1  UNL1        0.0375
@<TRIPOS>BOND
     1    26    27    1
     2    27    20    1
     3    20    21   ar
     4    21    22   ar
     5    22    28    1
     6    28    29    1
     7    29    30   ar
     8    30    31   ar
     9    31    32   ar
    10    32    33   ar
    11    33    34   ar
    12    22    23   ar
    13    23    24   ar
    14    24    25   ar
    15    25     1    1
    16     1     2   ar
    17     2     3   ar
    18    13     3    1
    19    13    14    1
    20    14    15    1
    21    15    16    1
    22    15    17    1
    23    15    18    1
    24     3     4   ar
    25     4     5   ar
    26     5     6   ar
    27     6     7   ar
    28     7     8   ar
    29     8     9    1
    30     8    10   ar
    31    25    20   ar
    32    10     1   ar
    33    34    29   ar
    34    18    13    1
    35    10     4   ar
    36    17    19    1
    37     9    11    1
    38     9    12    1
@<TRIPOS>MOLECULE
*****
 34 38 0 0 0
SMALL
GASTEIGER

@<TRIPOS>ATOM
      1 C          63.1851   88.5804   11.9484 C.ar    1  UNL1        0.1043
      2 N          63.4995   87.3483   12.7441 N.ar    1  UNL1       -0.2304
      3 C          62.6234   86.2379   12.2445 C.ar    1  UNL1        0.1240
      4 N          61.7677   86.7837   11.1401 N.ar    1  UNL1       -0.2885
      5 C          60.7172   86.1495   10.2774 C.ar    1  UNL1        0.1020
      6 C          60.0139   86.9631    9.2317 C.ar    1  UNL1        0.1193
      7 N          60.3611   88.4108    9.0487 N.ar    1  UNL1       -0.2265
      8 C          61.4116   89.0450    9.9113 C.ar    1  UNL1        0.1432
      9 N          61.7588   90.4928    9.7283 N.pl3   1  UNL1       -0.3414
     10 C          62.1149   88.2315   10.9570 C.ar    1  UNL1        0.1142
     11 H          61.2972   91.0267    9.0420 H       1  UNL1        0.1438
     12 H          62.4482   90.9090   10.2945 H       1  UNL1        0.1438
     13 C          62.6061   84.8290   12.7590 C.3     1  UNL1        0.0619
     14 C          62.4418   84.1945   14.1084 C.3     1  UNL1        0.0345
     15 C          62.5816   82.8366   13.4868 C.3     1  UNL1        0.0892
     16 C          62.7213   81.4786   12.8652 C.3     1  UNL1        0.0293
     17 O          62.4173   82.2021   14.8360 O.3     1  UNL1       -0.3867
     18 C          62.7458   83.4710   12.1376 C.3     1  UNL1        0.0345
     19 H          62.4671   81.2374   14.7479 H       1  UNL1        0.2102
     20 C          64.3593   90.3421   13.4543 C.ar    1  UNL1        0.1432
     21 C          65.0024   91.6870   13.6207 C.ar    1  UNL1        0.0744
     22 C          65.1144   92.6151   12.4476 C.ar    1  UNL1        0.1483
     23 C          64.5834   92.1982   11.1082 C.ar    1  UNL1        0.0377
     24 C          63.9403   90.8533   10.9418 C.ar    1  UNL1        0.0077
     25 C          63.8282   89.9253   12.1148 C.ar    1  UNL1        0.0534
     26 C          63.4797   89.8344   15.8457 C.3     1  UNL1        0.2525
     27 O          64.2472   89.4141   14.6274 O.3     1  UNL1       -0.4713
     28 O          65.7575   93.9600   12.6140 O.3     1  UNL1       -0.4534
     29 C          66.3288   94.6707   11.4230 C.ar    1  UNL1        0.1453
     30 C          66.1107   96.1450   11.2536 C.ar    1  UNL1        0.0375
     31 C          66.6820   96.8557   10.0626 C.ar    1  UNL1        0.0031
     32 C          67.4714   96.0920    9.0410 C.ar    1  UNL1        0.0002
     33 C          67.6895   94.6176    9.2104 C.ar    1  UNL1        0.0031
     34 C          67.1182   93.9069   10.4014 C.ar    1  UNL1        0.0375
@<TRIPOS>BOND
     1    26    27    1
     2    27    20    1
     3    20    21   ar
     4    21    22   ar
     5    22    28    1
     6    28    29    1
     7    29    30   ar
     8    30    31   ar
     9    31    32   ar
    10    32    33   ar
    11    33    34   ar
    12    22    23   ar
    13    23    24   ar
    14    24    25   ar
    15    25     1    1
    16     1     2   ar
    17     2     3   ar
    18    13     3    1
    19    13    14    1
    20    14    15    1
    21    15    16    1
    22    15    17    1
    23    15    18    1
    24     3     4   ar
    25     4     5   ar
    26     5     6   ar
    27     6     7   ar
    28     7     8   ar
    29     8     9    1
    30     8    10   ar
    31    25    20   ar
    32    10     1   ar
    33    34    29   ar
    34    18    13    1
    35    10     4   ar
    36    17    19    1
    37     9    11    1
    38     9    12    1
@<TRIPOS>MOLECULE
*****
 34 38 0 0 0
SMALL
GASTEIGER

@<TRIPOS>ATOM
      1 C          62.7243   88.8728   11.7898 C.ar    1  UNL1        0.1043
      2 N          63.3473   90.1248   12.3324 N.ar    1  UNL1       -0.2304
      3 C          64.1417   89.7569   13.5504 C.ar    1  UNL1        0.1240
      4 N          64.0096   88.2776   13.7606 N.ar    1  UNL1       -0.2885
      5 C          64.5739   87.3576   14.8022 C.ar    1  UNL1        0.1020
      6 C          64.2621   85.8911   14.7557 C.ar    1  UNL1        0.1193
      7 N          63.3861   85.3447   13.6676 N.ar    1  UNL1       -0.2265
      8 C          62.8219   86.2647   12.6260 C.ar    1  UNL1        0.1432
      9 N          61.9459   85.7183   11.5378 N.pl3   1  UNL1       -0.3414
     10 C          63.1336   87.7312   12.6725 C.ar    1  UNL1        0.1142
     11 H          61.7413   84.7558   11.5073 H       1  UNL1        0.1438
     12 H          61.5756   86.3222   10.8541 H       1  UNL1        0.1438
     13 C          64.9297   90.7024   14.4078 C.3     1  UNL1        0.0619
     14 C          64.6284   91.5439   15.6124 C.3     1  UNL1        0.0345
     15 C          66.0442   92.0395   15.6203 C.3     1  UNL1        0.0892
     16 C          67.4599   92.5351   15.6282 C.3     1  UNL1        0.0293
     17 O          65.7429   92.8810   16.8249 O.3     1  UNL1       -0.3867
     18 C          66.3454   91.1980   14.4157 C.3     1  UNL1        0.0345
     19 H          66.5411   93.3645   17.0894 H       1  UNL1        0.2102
     20 C          60.6798   89.7094   10.4221 C.ar    1  UNL1        0.1432
     21 C          59.8016   89.6155    9.2097 C.ar    1  UNL1        0.0744
     22 C          60.0897   88.5912    8.1524 C.ar    1  UNL1        0.1483
     23 C          61.2560   87.6607    8.3077 C.ar    1  UNL1        0.0377
     24 C          62.1341   87.7547    9.5201 C.ar    1  UNL1        0.0077
     25 C          61.8461   88.7789   10.5773 C.ar    1  UNL1        0.0534
     26 C          58.9734   91.0996   11.8026 C.3     1  UNL1        0.2525
     27 O          60.3917   90.7338   11.4793 O.3     1  UNL1       -0.4713
     28 O          59.2116   88.4973    6.9400 O.3     1  UNL1       -0.4534
     29 C          58.9869   89.7064    6.0812 C.ar    1  UNL1        0.1453
     30 C          57.5945   90.2144    5.8508 C.ar    1  UNL1        0.0375
     31 C          57.3698   91.4235    4.9920 C.ar    1  UNL1        0.0031
     32 C          58.5376   92.1246    4.3636 C.ar    1  UNL1        0.0002
     33 C          59.9300   91.6165    4.5940 C.ar    1  UNL1        0.0031
     34 C          60.1547   90.4074    5.4528 C.ar    1  UNL1        0.0375
@<TRIPOS>BOND
     1    26    27    1
     2    27    20    1
     3    20    21   ar
     4    21    22   ar
     5    22    28    1
     6    28    29    1
     7    29    30   ar
     8    30    31   ar
     9    31    32   ar
    10    32    33   ar
    11    33    34   ar
    12    22    23   ar
    13    23    24   ar
    14    24    25   ar
    15    25     1    1
    16     1     2   ar
    17     2     3   ar
    18    13     3    1
    19    13    14    1
    20    14    15    1
    21    15    16    1
    22    15    17    1
    23    15    18    1
    24     3     4   ar
    25     4     5   ar
    26     5     6   ar
    27     6     7   ar
    28     7     8   ar
    29     8     9    1
    30     8    10   ar
    31    25    20   ar
    32    10     1   ar
    33    34    29   ar
    34    18    13    1
    35    10     4   ar
    36    17    19    1
    37     9    11    1
    38     9    12    1
@<TRIPOS>MOLECULE
*****
 34 38 0 0 0
SMALL
GASTEIGER

@<TRIPOS>ATOM
      1 C          63.1038   87.8421   12.3201 C.ar    1  UNL1        0.1043
      2 N          63.4455   86.4291   12.6899 N.ar    1  UNL1       -0.2304
      3 C          62.6270   85.5137   11.8286 C.ar    1  UNL1        0.1240
      4 N          61.7794   86.3609   10.9264 N.ar    1  UNL1       -0.2885
      5 C          60.7774   86.0078    9.8675 C.ar    1  UNL1        0.1020
      6 C          60.0701   87.0939    9.1124 C.ar    1  UNL1        0.1193
      7 N          60.3648   88.5329    9.4162 N.ar    1  UNL1       -0.2265
      8 C          61.3668   88.8859   10.4750 C.ar    1  UNL1        0.1432
      9 N          61.6616   90.3250   10.7788 N.pl3   1  UNL1       -0.3414
     10 C          62.0741   87.7999   11.2301 C.ar    1  UNL1        0.1142
     11 H          61.1973   91.0378   10.2832 H       1  UNL1        0.1438
     12 H          62.3193   90.5567   11.4738 H       1  UNL1        0.1438
     13 C          62.6516   84.0143   11.8633 C.3     1  UNL1        0.0619
     14 C          62.8956   82.9338   10.8518 C.3     1  UNL1        0.0345
     15 C          62.6865   81.8938   11.9123 C.3     1  UNL1        0.0892
     16 C          62.4774   80.8538   12.9728 C.3     1  UNL1        0.0293
     17 O          62.9304   80.8133   10.9008 O.3     1  UNL1       -0.3867
     18 C          62.4425   82.9743   12.9237 C.3     1  UNL1        0.0345
     19 H          62.8555   79.9464   11.3294 H       1  UNL1        0.2102
     20 C          64.0239   89.1071   14.3946 C.ar    1  UNL1        0.1432
     21 C          64.6091   90.3449   15.0071 C.ar    1  UNL1        0.0744
     22 C          64.8597   91.5556   14.1577 C.ar    1  UNL1        0.1483
     23 C          64.5250   91.5284   12.6958 C.ar    1  UNL1        0.0377
     24 C          63.9397   90.2906   12.0833 C.ar    1  UNL1        0.0077
     25 C          63.6891   89.0799   12.9326 C.ar    1  UNL1        0.0534
     26 C          63.1812   88.0505   16.6135 C.3     1  UNL1        0.2525
     27 O          63.7733   87.8964   15.2440 O.3     1  UNL1       -0.4713
     28 O          65.4450   92.7935   14.7703 O.3     1  UNL1       -0.4534
     29 C          66.9302   92.9153   14.9416 C.ar    1  UNL1        0.1453
     30 C          67.4916   93.8271   15.9920 C.ar    1  UNL1        0.0375
     31 C          68.9768   93.9489   16.1633 C.ar    1  UNL1        0.0031
     32 C          69.9005   93.1590   15.2842 C.ar    1  UNL1        0.0002
     33 C          69.3390   92.2472   14.2337 C.ar    1  UNL1        0.0031
     34 C          67.8538   92.1254   14.0624 C.ar    1  UNL1        0.0375
@<TRIPOS>BOND
     1    26    27    1
     2    27    20    1
     3    20    21   ar
     4    21    22   ar
     5    22    28    1
     6    28    29    1
     7    29    30   ar
     8    30    31   ar
     9    31    32   ar
    10    32    33   ar
    11    33    34   ar
    12    22    23   ar
    13    23    24   ar
    14    24    25   ar
    15    25     1    1
    16     1     2   ar
    17     2     3   ar
    18    13     3    1
    19    13    14    1
    20    14    15    1
    21    15    16    1
    22    15    17    1
    23    15    18    1
    24     3     4   ar
    25     4     5   ar
    26     5     6   ar
    27     6     7   ar
    28     7     8   ar
    29     8     9    1
    30     8    10   ar
    31    25    20   ar
    32    10     1   ar
    33    34    29   ar
    34    18    13    1
    35    10     4   ar
    36    17    19    1
    37     9    11    1
    38     9    12    1
@<TRIPOS>MOLECULE
*****
 34 38 0 0 0
SMALL
GASTEIGER

@<TRIPOS>ATOM
      1 C          63.8145   88.2932   13.9142 C.ar    1  UNL1        0.1043
      2 N          63.8618   86.9181   13.3169 N.ar    1  UNL1       -0.2304
      3 C          63.5758   85.9290   14.4077 C.ar    1  UNL1        0.1240
      4 N          63.3517   86.6928   15.6791 N.ar    1  UNL1       -0.2885
      5 C          63.0324   86.2466   17.0751 C.ar    1  UNL1        0.1020
      6 C          62.8606   87.2616   18.1660 C.ar    1  UNL1        0.1193
      7 N          63.0081   88.7228   17.8610 N.ar    1  UNL1       -0.2265
      8 C          63.3274   89.1690   16.4650 C.ar    1  UNL1        0.1432
      9 N          63.4750   90.6302   16.1599 N.pl3   1  UNL1       -0.3414
     10 C          63.4992   88.1540   15.3740 C.ar    1  UNL1        0.1142
     11 H          63.3622   91.2964   16.8760 H       1  UNL1        0.1438
     12 H          63.6846   90.9231   15.2437 H       1  UNL1        0.1438
     13 C          63.5231   84.4378   14.2541 C.3     1  UNL1        0.0619
     14 C          62.7944   83.3251   14.9480 C.3     1  UNL1        0.0345
     15 C          63.4484   82.3289   14.0371 C.3     1  UNL1        0.0892
     16 C          64.1025   81.3326   13.1261 C.3     1  UNL1        0.0293
     17 O          62.7199   81.2163   14.7308 O.3     1  UNL1       -0.3867
     18 C          64.1770   83.4415   13.3433 C.3     1  UNL1        0.0345
     19 H          62.9616   80.3690   14.3250 H       1  UNL1        0.2102
     20 C          65.1003   90.5354   13.6505 C.ar    1  UNL1        0.1432
     21 C          65.3282   91.8237   12.9167 C.ar    1  UNL1        0.0744
     22 C          64.4983   92.1580   11.7128 C.ar    1  UNL1        0.1483
     23 C          63.4405   91.2041   11.2427 C.ar    1  UNL1        0.0377
     24 C          63.2126   89.9159   11.9765 C.ar    1  UNL1        0.0077
     25 C          64.0424   89.5815   13.1803 C.ar    1  UNL1        0.0534
     26 C          67.0948   91.0697   15.2274 C.3     1  UNL1        0.2525
     27 O          65.9302   90.2011   14.8544 O.3     1  UNL1       -0.4713
     28 O          64.7263   93.4463   10.9790 O.3     1  UNL1       -0.4534
     29 C          66.0044   93.6637   10.2245 C.ar    1  UNL1        0.1453
     30 C          66.3083   95.0096    9.6362 C.ar    1  UNL1        0.0375
     31 C          67.5864   95.2270    8.8817 C.ar    1  UNL1        0.0031
     32 C          68.5606   94.0985    8.7157 C.ar    1  UNL1        0.0002
     33 C          68.2566   92.7525    9.3040 C.ar    1  UNL1        0.0031
     34 C          66.9785   92.5351   10.0585 C.ar    1  UNL1        0.0375
@<TRIPOS>BOND
     1    26    27    1
     2    27    20    1
     3    20    21   ar
     4    21    22   ar
     5    22    28    1
     6    28    29    1
     7    29    30   ar
     8    30    31   ar
     9    31    32   ar
    10    32    33   ar
    11    33    34   ar
    12    22    23   ar
    13    23    24   ar
    14    24    25   ar
    15    25     1    1
    16     1     2   ar
    17     2     3   ar
    18    13     3    1
    19    13    14    1
    20    14    15    1
    21    15    16    1
    22    15    17    1
    23    15    18    1
    24     3     4   ar
    25     4     5   ar
    26     5     6   ar
    27     6     7   ar
    28     7     8   ar
    29     8     9    1
    30     8    10   ar
    31    25    20   ar
    32    10     1   ar
    33    34    29   ar
    34    18    13    1
    35    10     4   ar
    36    17    19    1
    37     9    11    1
    38     9    12    1
@<TRIPOS>MOLECULE
*****
 34 38 0 0 0
SMALL
GASTEIGER

@<TRIPOS>ATOM
      1 C          63.9783   87.9572   13.7691 C.ar    1  UNL1        0.1043
      2 N          64.9732   88.6720   14.6348 N.ar    1  UNL1       -0.2304
      3 C          65.0730   90.0890   14.1532 C.ar    1  UNL1        0.1240
      4 N          64.1399   90.2501   12.9898 N.ar    1  UNL1       -0.2885
      5 C          63.8189   91.4262   12.1160 C.ar    1  UNL1        0.1020
      6 C          62.8213   91.2848   11.0048 C.ar    1  UNL1        0.1193
      7 N          62.1448   89.9672   10.7674 N.ar    1  UNL1       -0.2265
      8 C          62.4658   88.7911   11.6412 C.ar    1  UNL1        0.1432
      9 N          61.7893   87.4736   11.4038 N.pl3   1  UNL1       -0.3414
     10 C          63.4634   88.9325   12.7524 C.ar    1  UNL1        0.1142
     11 H          61.1345   87.3807   10.6745 H       1  UNL1        0.1438
     12 H          62.0000   86.7016   11.9774 H       1  UNL1        0.1438
     13 C          65.9517   91.1575   14.7331 C.3     1  UNL1        0.0619
     14 C          65.7553   92.2762   15.7130 C.3     1  UNL1        0.0345
     15 C          67.1942   92.6686   15.5532 C.3     1  UNL1        0.0892
     16 C          68.6331   93.0611   15.3935 C.3     1  UNL1        0.0293
     17 O          66.9980   93.7872   16.5331 O.3     1  UNL1       -0.3867
     18 C          67.3905   91.5500   14.5734 C.3     1  UNL1        0.0345
     19 H          67.8329   94.2676   16.6469 H       1  UNL1        0.2102
     20 C          63.2017   85.9615   15.2402 C.ar    1  UNL1        0.1432
     21 C          62.7935   84.5239   15.3686 C.ar    1  UNL1        0.0744
     22 C          62.7537   83.6442   14.1543 C.ar    1  UNL1        0.1483
     23 C          63.1222   84.2022   12.8116 C.ar    1  UNL1        0.0377
     24 C          63.5304   85.6399   12.6832 C.ar    1  UNL1        0.0077
     25 C          63.5701   86.5196   13.8974 C.ar    1  UNL1        0.0534
     26 C          62.6515   86.3618   17.7476 C.3     1  UNL1        0.2525
     27 O          63.2414   86.8412   16.4546 O.3     1  UNL1       -0.4713
     28 O          62.3455   82.2065   14.2827 O.3     1  UNL1       -0.4534
     29 C          62.5138   81.2725   13.1211 C.ar    1  UNL1        0.1453
     30 C          62.8994   81.8112   11.7753 C.ar    1  UNL1        0.0375
     31 C          63.0676   80.8772   10.6138 C.ar    1  UNL1        0.0031
     32 C          62.8502   79.4045   10.7979 C.ar    1  UNL1        0.0002
     33 C          62.4646   78.8658   12.1438 C.ar    1  UNL1        0.0031
     34 C          62.2963   79.7998   13.3054 C.ar    1  UNL1        0.0375
@<TRIPOS>BOND
     1    26    27    1
     2    27    20    1
     3    20    21   ar
     4    21    22   ar
     5    22    28    1
     6    28    29    1
     7    29    30   ar
     8    30    31   ar
     9    31    32   ar
    10    32    33   ar
    11    33    34   ar
    12    22    23   ar
    13    23    24   ar
    14    24    25   ar
    15    25     1    1
    16     1     2   ar
    17     2     3   ar
    18    13     3    1
    19    13    14    1
    20    14    15    1
    21    15    16    1
    22    15    17    1
    23    15    18    1
    24     3     4   ar
    25     4     5   ar
    26     5     6   ar
    27     6     7   ar
    28     7     8   ar
    29     8     9    1
    30     8    10   ar
    31    25    20   ar
    32    10     1   ar
    33    34    29   ar
    34    18    13    1
    35    10     4   ar
    36    17    19    1
    37     9    11    1
    38     9    12    1
@<TRIPOS>MOLECULE
*****
 34 38 0 0 0
SMALL
GASTEIGER

@<TRIPOS>ATOM
      1 C          62.7049   89.0689   11.6655 C.ar    1  UNL1        0.1043
      2 N          63.4975   90.2738   12.0778 N.ar    1  UNL1       -0.2304
      3 C          64.3289   89.8966   13.2680 C.ar    1  UNL1        0.1240
      4 N          64.0501   88.4586   13.5913 N.ar    1  UNL1       -0.2885
      5 C          64.5805   87.5490   14.6595 C.ar    1  UNL1        0.1020
      6 C          64.1072   86.1277   14.7373 C.ar    1  UNL1        0.1193
      7 N          63.1036   85.6162   13.7469 N.ar    1  UNL1       -0.2265
      8 C          62.5732   86.5258   12.6786 C.ar    1  UNL1        0.1432
      9 N          61.5695   86.0142   11.6882 N.pl3   1  UNL1       -0.3414
     10 C          63.0465   87.9470   12.6009 C.ar    1  UNL1        0.1142
     11 H          61.2589   85.0814   11.7393 H       1  UNL1        0.1438
     12 H          61.2214   86.6113   10.9871 H       1  UNL1        0.1438
     13 C          65.2732   90.7990   14.0056 C.3     1  UNL1        0.0619
     14 C          66.5930   91.4385   13.6904 C.3     1  UNL1        0.0345
     15 C          66.6088   92.0752   15.0485 C.3     1  UNL1        0.0892
     16 C          66.6245   92.7118   16.4066 C.3     1  UNL1        0.0293
     17 O          67.9286   92.7146   14.7334 O.3     1  UNL1       -0.3867
     18 C          65.2890   91.4357   15.3636 C.3     1  UNL1        0.0345
     19 H          68.2226   93.2406   15.4935 H       1  UNL1        0.2102
     20 C          61.9052   87.9449    9.4638 C.ar    1  UNL1        0.1432
     21 C          60.9405   87.8742    8.3174 C.ar    1  UNL1        0.0744
     22 C          59.8108   88.8567    8.2261 C.ar    1  UNL1        0.1483
     23 C          59.6458   89.9099    9.2814 C.ar    1  UNL1        0.0377
     24 C          60.6105   89.9806   10.4278 C.ar    1  UNL1        0.0077
     25 C          61.7402   88.9982   10.5191 C.ar    1  UNL1        0.0534
     26 C          63.0317   85.7336    8.6948 C.3     1  UNL1        0.2525
     27 O          63.0350   86.9624    9.5550 O.3     1  UNL1       -0.4713
     28 O          58.8461   88.7860    7.0797 O.3     1  UNL1       -0.4534
     29 C          58.7649   89.9163    6.0970 C.ar    1  UNL1        0.1453
     30 C          60.0188   90.4796    5.4966 C.ar    1  UNL1        0.0375
     31 C          59.9376   91.6100    4.5139 C.ar    1  UNL1        0.0031
     32 C          58.6026   92.1770    4.1315 C.ar    1  UNL1        0.0002
     33 C          57.3486   91.6136    4.7320 C.ar    1  UNL1        0.0031
     34 C          57.4298   90.4833    5.7147 C.ar    1  UNL1        0.0375
@<TRIPOS>BOND
     1    26    27    1
     2    27    20    1
     3    20    21   ar
     4    21    22   ar
     5    22    28    1
     6    28    29    1
     7    29    30   ar
     8    30    31   ar
     9    31    32   ar
    10    32    33   ar
    11    33    34   ar
    12    22    23   ar
    13    23    24   ar
    14    24    25   ar
    15    25     1    1
    16     1     2   ar
    17     2     3   ar
    18    13     3    1
    19    13    14    1
    20    14    15    1
    21    15    16    1
    22    15    17    1
    23    15    18    1
    24     3     4   ar
    25     4     5   ar
    26     5     6   ar
    27     6     7   ar
    28     7     8   ar
    29     8     9    1
    30     8    10   ar
    31    25    20   ar
    32    10     1   ar
    33    34    29   ar
    34    18    13    1
    35    10     4   ar
    36    17    19    1
    37     9    11    1
    38     9    12    1
