@<TRIPOS>MOLECULE
*****
 48 55 0 0 0
SMALL
GASTEIGER

@<TRIPOS>ATOM
      1 C          58.9372   94.8310   -1.4070 C.2     1  UNL1       -0.0307
      2 C          59.2926   93.4356   -1.8271 C.2     1  UNL1       -0.0307
      3 C          59.4039   95.3572   -0.0821 C.3     1  UNL1        0.0260
      4 C          65.3813   94.9654   -0.2883 C.3     1  UNL1        0.0024
      5 C          63.8880   94.9858   -0.1482 C.3     1  UNL1        0.0247
      6 C          64.5793   94.0723    0.8202 C.3     1  UNL1        0.0023
      7 C          63.7759   93.2827    1.8106 C.3     1  UNL1        0.0004
      8 C          62.2811   93.4065    1.8326 C.3     1  UNL1        0.0035
      9 C          61.5899   94.3199    0.8643 C.3     1  UNL1        0.0010
     10 C          60.0951   94.4437    0.8863 C.3     1  UNL1        0.0084
     11 C          59.2917   93.6540    1.8767 C.3     1  UNL1        0.0224
     12 C          59.9830   92.7405    2.8451 C.2     1  UNL1       -0.0420
     13 C          59.1795   91.9509    3.8355 C.2     1  UNL1        0.0289
     14 C          59.8708   91.0375    4.8038 C.2     1  UNL1        0.1725
     15 O          59.0674   90.2478    5.7943 O.2     1  UNL1       -0.2914
     16 C          61.3655   90.9137    4.7818 C.3     1  UNL1        0.0694
     17 C          62.1690   91.7033    3.7914 C.3     1  UNL1        0.0118
     18 C          61.4777   92.6168    2.8231 C.3     1  UNL1        0.0157
     19 C          62.9724   92.4930    2.8010 C.3     1  UNL1        0.0041
     20 C          62.3933   95.1096   -0.1262 C.3     1  UNL1        0.0024
     21 C          61.9930   96.0830   -1.1949 C.3     1  UNL1        0.0026
     22 C          63.2403   96.5608   -1.8774 C.3     1  UNL1        0.0292
     23 C          64.4115   95.8827   -1.2305 C.3     1  UNL1        0.1104
     24 O          65.8531   96.0688   -1.6010 O.3     1  UNL1       -0.3845
     25 H          65.9197   96.7024   -2.3325 H       1  UNL1        0.2103
     26 C          58.8259   92.9094   -3.1520 C.3     1  UNL1        0.0260
     27 C          58.3124   93.8560   -4.1962 C.3     1  UNL1        0.0084
     28 C          56.8352   94.0163   -4.4018 C.3     1  UNL1        0.0224
     29 C          56.3217   94.9629   -5.4460 C.2     1  UNL1       -0.0420
     30 C          54.8446   95.1232   -5.6516 C.2     1  UNL1        0.0289
     31 C          54.3310   96.0698   -6.6958 C.2     1  UNL1        0.1725
     32 O          52.8539   96.2301   -6.9014 O.2     1  UNL1       -0.2914
     33 C          55.2947   96.8560   -7.5344 C.3     1  UNL1        0.0694
     34 C          56.7719   96.6956   -7.3288 C.3     1  UNL1        0.0118
     35 C          57.2854   95.7491   -6.2846 C.3     1  UNL1        0.0157
     36 C          58.2490   96.5353   -7.1232 C.3     1  UNL1        0.0041
     37 C          58.7625   95.5888   -6.0790 C.3     1  UNL1        0.0035
     38 C          59.7261   96.3750   -6.9176 C.3     1  UNL1        0.0004
     39 C          61.2034   96.2146   -6.7120 C.3     1  UNL1        0.0023
     40 C          61.7168   95.2681   -5.6678 C.3     1  UNL1        0.0247
     41 C          62.7954   95.9832   -6.4264 C.3     1  UNL1        0.0024
     42 C          63.1077   94.9032   -5.2407 C.3     1  UNL1        0.1104
     43 O          64.3793   95.4535   -5.8153 O.3     1  UNL1       -0.3845
     44 C          63.0037   93.8915   -4.1381 C.3     1  UNL1        0.0292
     45 C          61.5485   93.6311   -3.8838 C.3     1  UNL1        0.0026
     46 C          60.7532   94.4819   -4.8292 C.3     1  UNL1        0.0024
     47 C          59.2761   94.6422   -5.0348 C.3     1  UNL1        0.0010
     48 H          64.1686   96.0908   -6.5155 H       1  UNL1        0.2103
@<TRIPOS>BOND
     1     5     4    1
     2     5     6    1
     3     6     7    1
     4     8     7    1
     5     8     9    1
     6     9    10    1
     7    10     3    1
     8     3     1    1
     9     1     2    2
    10     2    26    1
    11    27    26    1
    12    27    28    1
    13    28    29    1
    14    29    30    2
    15    30    31    1
    16    31    32    2
    17    31    33    1
    18    33    34    1
    19    34    35    1
    20    35    36    1
    21    35    37    1
    22    37    38    1
    23    38    39    1
    24    39    40    1
    25    40    41    1
    26    40    42    1
    27    42    43    1
    28    42    44    1
    29    44    45    1
    30    46    45    1
    31    46    47    1
    32    10    11    1
    33    11    12    1
    34    12    13    2
    35    13    14    1
    36    14    15    2
    37    14    16    1
    38    16    17    1
    39    17    18    1
    40    18    19    1
    41     9    20    1
    42    20    21    1
    43    21    22    1
    44    22    23    1
    45    23    24    1
    46    20     5    1
    47    23     5    1
    48    18     8    1
    49    47    27    1
    50    18    12    1
    51    35    29    1
    52    47    37    1
    53    46    40    1
    54    43    48    1
    55    24    25    1
@<TRIPOS>MOLECULE
*****
 48 55 0 0 0
SMALL
GASTEIGER

@<TRIPOS>ATOM
      1 C          58.7518   95.4489   -0.4147 C.2     1  UNL1       -0.0307
      2 C          57.9605   94.1761   -0.4759 C.2     1  UNL1       -0.0307
      3 C          59.5771   95.7614    0.7982 C.3     1  UNL1        0.0260
      4 C          65.3702   94.6102   -0.2218 C.3     1  UNL1        0.0024
      5 C          63.9216   94.8106    0.1120 C.3     1  UNL1        0.0247
      6 C          64.5768   93.7008    0.8796 C.3     1  UNL1        0.0023
      7 C          63.7838   92.9080    1.8759 C.3     1  UNL1        0.0004
      8 C          62.3357   93.2249    2.1046 C.3     1  UNL1        0.0035
      9 C          61.6804   94.3347    1.3371 C.3     1  UNL1        0.0010
     10 C          60.2323   94.6516    1.5658 C.3     1  UNL1        0.0084
     11 C          59.4393   93.8587    2.5620 C.3     1  UNL1        0.0224
     12 C          60.0945   92.7489    3.3296 C.2     1  UNL1       -0.0420
     13 C          59.3015   91.9561    4.3259 C.2     1  UNL1        0.0289
     14 C          59.9567   90.8464    5.0934 C.2     1  UNL1        0.1725
     15 O          59.1637   90.0535    6.0897 O.2     1  UNL1       -0.2914
     16 C          61.4049   90.5295    4.8647 C.3     1  UNL1        0.0694
     17 C          62.1979   91.3223    3.8684 C.3     1  UNL1        0.0118
     18 C          61.5427   92.4320    3.1009 C.3     1  UNL1        0.0157
     19 C          62.9909   92.1151    2.8722 C.3     1  UNL1        0.0041
     20 C          62.4734   95.1275    0.3407 C.3     1  UNL1        0.0024
     21 C          62.1016   96.2701   -0.5570 C.3     1  UNL1        0.0026
     22 C          63.3199   96.6594   -1.3406 C.3     1  UNL1        0.0292
     23 C          64.4448   95.7574   -0.9271 C.3     1  UNL1        0.1104
     24 O          65.8467   95.7955   -1.4594 O.3     1  UNL1       -0.3845
     25 H          65.9221   96.5003   -2.1215 H       1  UNL1        0.2103
     26 C          57.1351   93.8636   -1.6889 C.3     1  UNL1        0.0260
     27 C          57.5444   94.3931   -3.0313 C.3     1  UNL1        0.0084
     28 C          58.9405   94.1689   -3.5321 C.3     1  UNL1        0.0224
     29 C          59.3498   94.6985   -4.8745 C.2     1  UNL1       -0.0420
     30 C          60.7458   94.4742   -5.3753 C.2     1  UNL1        0.0289
     31 C          61.1551   95.0038   -6.7178 C.2     1  UNL1        0.1725
     32 O          62.5511   94.7796   -7.2186 O.2     1  UNL1       -0.2914
     33 C          60.1684   95.7575   -7.5594 C.3     1  UNL1        0.0694
     34 C          58.7723   95.9817   -7.0585 C.3     1  UNL1        0.0118
     35 C          58.3631   95.4522   -5.7161 C.3     1  UNL1        0.0157
     36 C          57.3763   96.2059   -6.5577 C.3     1  UNL1        0.0041
     37 C          56.9670   95.6764   -5.2153 C.3     1  UNL1        0.0035
     38 C          55.9803   96.4301   -6.0569 C.3     1  UNL1        0.0004
     39 C          54.5842   96.6543   -5.5560 C.3     1  UNL1        0.0023
     40 C          54.1750   96.1248   -4.2136 C.3     1  UNL1        0.0247
     41 C          53.0847   96.8560   -4.9394 C.3     1  UNL1        0.0024
     42 C          52.8788   96.1901   -3.4616 C.3     1  UNL1        0.1104
     43 O          51.6182   96.8524   -3.9331 O.3     1  UNL1       -0.3845
     44 C          53.0644   95.4767   -2.1552 C.3     1  UNL1        0.0292
     45 C          54.4753   94.9705   -2.0999 C.3     1  UNL1        0.0026
     46 C          55.1617   95.3711   -3.3720 C.3     1  UNL1        0.0024
     47 C          56.5577   95.1469   -3.8728 C.3     1  UNL1        0.0010
     48 H          51.7650   97.2394   -4.8104 H       1  UNL1        0.2103
@<TRIPOS>BOND
     1     5     4    1
     2     5     6    1
     3     6     7    1
     4     8     7    1
     5     8     9    1
     6     9    10    1
     7    10     3    1
     8     3     1    1
     9     1     2    2
    10     2    26    1
    11    27    26    1
    12    27    28    1
    13    28    29    1
    14    29    30    2
    15    30    31    1
    16    31    32    2
    17    31    33    1
    18    33    34    1
    19    34    35    1
    20    35    36    1
    21    35    37    1
    22    37    38    1
    23    38    39    1
    24    39    40    1
    25    40    41    1
    26    40    42    1
    27    42    43    1
    28    42    44    1
    29    44    45    1
    30    46    45    1
    31    46    47    1
    32    10    11    1
    33    11    12    1
    34    12    13    2
    35    13    14    1
    36    14    15    2
    37    14    16    1
    38    16    17    1
    39    17    18    1
    40    18    19    1
    41     9    20    1
    42    20    21    1
    43    21    22    1
    44    22    23    1
    45    23    24    1
    46    20     5    1
    47    23     5    1
    48    18     8    1
    49    47    27    1
    50    18    12    1
    51    35    29    1
    52    47    37    1
    53    46    40    1
    54    43    48    1
    55    24    25    1
@<TRIPOS>MOLECULE
*****
 48 55 0 0 0
SMALL
GASTEIGER

@<TRIPOS>ATOM
      1 C          64.2699   88.3558   14.6789 C.2     1  UNL1       -0.0307
      2 C          63.2704   89.2386   15.3655 C.2     1  UNL1       -0.0307
      3 C          63.9248   86.9284   14.3731 C.3     1  UNL1        0.0260
      4 C          63.3835   81.1453   12.8937 C.3     1  UNL1        0.0024
      5 C          63.4640   82.6187   13.1631 C.3     1  UNL1        0.0247
      6 C          62.7886   82.2709   11.8696 C.3     1  UNL1        0.0023
      7 C          62.2668   83.3597   10.9796 C.3     1  UNL1        0.0004
      8 C          62.4204   84.7963   11.3829 C.3     1  UNL1        0.0035
      9 C          63.0958   85.1441   12.6763 C.3     1  UNL1        0.0010
     10 C          63.2493   86.5807   13.0796 C.3     1  UNL1        0.0084
     11 C          62.7275   87.6694   12.1896 C.3     1  UNL1        0.0224
     12 C          62.0521   87.3217   10.8961 C.2     1  UNL1       -0.0420
     13 C          61.5303   88.4105   10.0061 C.2     1  UNL1        0.0289
     14 C          60.8550   88.0627    8.7127 C.2     1  UNL1        0.1725
     15 O          60.3331   89.1515    7.8226 O.2     1  UNL1       -0.2914
     16 C          60.7014   86.6261    8.3094 C.3     1  UNL1        0.0694
     17 C          61.2232   85.5373    9.1994 C.3     1  UNL1        0.0118
     18 C          61.8985   85.8851   10.4928 C.3     1  UNL1        0.0157
     19 C          61.7450   84.4485   10.0895 C.3     1  UNL1        0.0041
     20 C          63.6176   84.0553   13.5664 C.3     1  UNL1        0.0024
     21 C          64.3224   84.0923   14.8899 C.3     1  UNL1        0.0026
     22 C          64.6044   82.6786   15.3046 C.3     1  UNL1        0.0292
     23 C          64.0739   81.7679   14.2373 C.3     1  UNL1        0.1104
     24 O          64.1414   80.2694   14.2434 O.3     1  UNL1       -0.3845
     25 H          64.5857   79.9690   15.0516 H       1  UNL1        0.2103
     26 C          63.6156   90.6659   15.6712 C.3     1  UNL1        0.0260
     27 C          64.9385   91.2264   15.2406 C.3     1  UNL1        0.0084
     28 C          66.0291   91.4347   16.2493 C.3     1  UNL1        0.0224
     29 C          67.3521   91.9951   15.8186 C.2     1  UNL1       -0.0420
     30 C          68.4425   92.2034   16.8273 C.2     1  UNL1        0.0289
     31 C          69.7656   92.7639   16.3967 C.2     1  UNL1        0.1725
     32 O          70.8560   92.9721   17.4054 O.2     1  UNL1       -0.2914
     33 C          69.9981   93.1161   14.9573 C.3     1  UNL1        0.0694
     34 C          68.9076   92.9079   13.9486 C.3     1  UNL1        0.0118
     35 C          67.5846   92.3474   14.3792 C.3     1  UNL1        0.0157
     36 C          67.8171   92.6997   12.9399 C.3     1  UNL1        0.0041
     37 C          66.4942   92.1392   13.3705 C.3     1  UNL1        0.0035
     38 C          66.7267   92.4915   11.9311 C.3     1  UNL1        0.0004
     39 C          65.6362   92.2832   10.9224 C.3     1  UNL1        0.0023
     40 C          64.3132   91.7228   11.3531 C.3     1  UNL1        0.0247
     41 C          64.3988   92.0267    9.8867 C.3     1  UNL1        0.0024
     42 C          63.0598   91.4095   10.5909 C.3     1  UNL1        0.1104
     43 O          62.8504   91.6074    9.1188 O.3     1  UNL1       -0.3845
     44 C          62.0526   90.8636   11.5592 C.3     1  UNL1        0.0292
     45 C          62.6835   90.8395   12.9198 C.3     1  UNL1        0.0026
     46 C          64.0806   91.3705   12.7925 C.3     1  UNL1        0.0024
     47 C          65.1711   91.5787   13.8012 C.3     1  UNL1        0.0010
     48 H          63.6570   91.9738    8.7239 H       1  UNL1        0.2103
@<TRIPOS>BOND
     1     5     4    1
     2     5     6    1
     3     6     7    1
     4     8     7    1
     5     8     9    1
     6     9    10    1
     7    10     3    1
     8     3     1    1
     9     1     2    2
    10     2    26    1
    11    27    26    1
    12    27    28    1
    13    28    29    1
    14    29    30    2
    15    30    31    1
    16    31    32    2
    17    31    33    1
    18    33    34    1
    19    34    35    1
    20    35    36    1
    21    35    37    1
    22    37    38    1
    23    38    39    1
    24    39    40    1
    25    40    41    1
    26    40    42    1
    27    42    43    1
    28    42    44    1
    29    44    45    1
    30    46    45    1
    31    46    47    1
    32    10    11    1
    33    11    12    1
    34    12    13    2
    35    13    14    1
    36    14    15    2
    37    14    16    1
    38    16    17    1
    39    17    18    1
    40    18    19    1
    41     9    20    1
    42    20    21    1
    43    21    22    1
    44    22    23    1
    45    23    24    1
    46    20     5    1
    47    23     5    1
    48    18     8    1
    49    47    27    1
    50    18    12    1
    51    35    29    1
    52    47    37    1
    53    46    40    1
    54    43    48    1
    55    24    25    1
@<TRIPOS>MOLECULE
*****
 48 55 0 0 0
SMALL
GASTEIGER

@<TRIPOS>ATOM
      1 C          63.2788   89.2400   15.3725 C.2     1  UNL1       -0.0307
      2 C          64.2763   88.3587   14.6809 C.2     1  UNL1       -0.0307
      3 C          63.6232   90.6678   15.6766 C.3     1  UNL1        0.0260
      4 C          64.4100   92.0191    9.8903 C.3     1  UNL1        0.0024
      5 C          64.3234   91.7176   11.3571 C.3     1  UNL1        0.0247
      6 C          65.6465   92.2780   10.9264 C.3     1  UNL1        0.0023
      7 C          66.7361   92.4885   11.9355 C.3     1  UNL1        0.0004
      8 C          66.5027   92.1386   13.3754 C.3     1  UNL1        0.0035
      9 C          65.1797   91.5782   13.8061 C.3     1  UNL1        0.0010
     10 C          64.9463   91.2283   15.2459 C.3     1  UNL1        0.0084
     11 C          66.0359   91.4388   16.2550 C.3     1  UNL1        0.0224
     12 C          67.3590   91.9992   15.8243 C.2     1  UNL1       -0.0420
     13 C          68.4486   92.2097   16.8335 C.2     1  UNL1        0.0289
     14 C          69.7716   92.7701   16.4028 C.2     1  UNL1        0.1725
     15 O          70.8614   92.9806   17.4119 O.2     1  UNL1       -0.2914
     16 C          70.0050   93.1200   14.9629 C.3     1  UNL1        0.0694
     17 C          68.9154   92.9095   13.9538 C.3     1  UNL1        0.0118
     18 C          67.5924   92.3491   14.3845 C.3     1  UNL1        0.0157
     19 C          67.8258   92.6990   12.9447 C.3     1  UNL1        0.0041
     20 C          64.0900   91.3677   12.7969 C.3     1  UNL1        0.0024
     21 C          62.6931   90.8363   12.9242 C.3     1  UNL1        0.0026
     22 C          62.0632   90.8577   11.5631 C.3     1  UNL1        0.0292
     23 C          63.0708   91.4024   10.5946 C.3     1  UNL1        0.1104
     24 O          62.8622   91.5977    9.1220 O.3     1  UNL1       -0.3845
     25 H          61.9656   91.3157    8.8823 H       1  UNL1        0.2103
     26 C          63.9319   86.9308   14.3768 C.3     1  UNL1        0.0260
     27 C          63.2521   86.5818   13.0861 C.3     1  UNL1        0.0084
     28 C          62.7338   87.6701   12.1932 C.3     1  UNL1        0.0224
     29 C          62.0540   87.3211   10.9024 C.2     1  UNL1       -0.0420
     30 C          61.5358   88.4093   10.0096 C.2     1  UNL1        0.0289
     31 C          60.8560   88.0603    8.7188 C.2     1  UNL1        0.1725
     32 O          60.3377   89.1486    7.8260 O.2     1  UNL1       -0.2914
     33 C          60.6944   86.6231    8.3209 C.3     1  UNL1        0.0694
     34 C          61.2127   85.5349    9.2138 C.3     1  UNL1        0.0118
     35 C          61.8925   85.8839   10.5045 C.3     1  UNL1        0.0157
     36 C          61.7310   84.4467   10.1066 C.3     1  UNL1        0.0041
     37 C          62.4107   84.7957   11.3973 C.3     1  UNL1        0.0035
     38 C          62.2492   83.3585   10.9994 C.3     1  UNL1        0.0004
     39 C          62.7675   82.2702   11.8923 C.3     1  UNL1        0.0023
     40 C          63.4473   82.6192   13.1830 C.3     1  UNL1        0.0247
     41 C          63.3589   81.1453   12.9191 C.3     1  UNL1        0.0024
     42 C          64.0552   81.7692   14.2591 C.3     1  UNL1        0.1104
     43 O          64.1153   80.2704   14.2702 O.3     1  UNL1       -0.3845
     44 C          64.5925   82.6810   15.3221 C.3     1  UNL1        0.0292
     45 C          64.3166   84.0946   14.9029 C.3     1  UNL1        0.0026
     46 C          63.6088   84.0564   13.5809 C.3     1  UNL1        0.0024
     47 C          63.0906   85.1446   12.6881 C.3     1  UNL1        0.0010
     48 H          63.6967   79.9241   13.4666 H       1  UNL1        0.2103
@<TRIPOS>BOND
     1     5     4    1
     2     5     6    1
     3     6     7    1
     4     8     7    1
     5     8     9    1
     6     9    10    1
     7    10     3    1
     8     3     1    1
     9     1     2    2
    10     2    26    1
    11    27    26    1
    12    27    28    1
    13    28    29    1
    14    29    30    2
    15    30    31    1
    16    31    32    2
    17    31    33    1
    18    33    34    1
    19    34    35    1
    20    35    36    1
    21    35    37    1
    22    37    38    1
    23    38    39    1
    24    39    40    1
    25    40    41    1
    26    40    42    1
    27    42    43    1
    28    42    44    1
    29    44    45    1
    30    46    45    1
    31    46    47    1
    32    10    11    1
    33    11    12    1
    34    12    13    2
    35    13    14    1
    36    14    15    2
    37    14    16    1
    38    16    17    1
    39    17    18    1
    40    18    19    1
    41     9    20    1
    42    20    21    1
    43    21    22    1
    44    22    23    1
    45    23    24    1
    46    20     5    1
    47    23     5    1
    48    18     8    1
    49    47    27    1
    50    18    12    1
    51    35    29    1
    52    47    37    1
    53    46    40    1
    54    43    48    1
    55    24    25    1
