@<TRIPOS>MOLECULE
*****
 45 48 0 0 0
SMALL
GASTEIGER

@<TRIPOS>ATOM
      1 N          59.5581   88.5153    7.8139 N.am    1  UNL1       -0.2724
      2 C          60.2458   88.8655    9.1002 C.2     1  UNL1        0.2491
      3 O          60.0310   90.2131    9.7227 O.2     1  UNL1       -0.2727
      4 C          59.7729   87.1675    7.1914 C.3     1  UNL1        0.1111
      5 C          60.3874   86.0597    7.9946 C.3     1  UNL1        0.0939
      6 N          61.5370   85.2758    7.4344 N.3     1  UNL1       -0.2712
      7 C          62.3155   84.2924    5.1591 C.3     1  UNL1        0.0188
      8 C          61.3181   84.3457    6.2782 C.3     1  UNL1        0.0722
      9 C          62.9057   85.4220    8.0306 C.3     1  UNL1        0.0722
     10 C          63.5608   84.2509    8.7009 C.3     1  UNL1        0.0188
     11 C          58.6557   89.5128    7.1502 C.3     1  UNL1        0.1202
     12 C          59.1709   90.3556    6.0213 C.ar    1  UNL1       -0.0023
     13 C          58.2301   91.2341    5.2512 C.ar    1  UNL1       -0.0026
     14 C          58.7454   92.0769    4.1224 C.ar    1  UNL1       -0.0003
     15 C          60.2015   92.0412    3.7638 C.ar    1  UNL1       -0.0000
     16 C          61.1423   91.1627    4.5339 C.ar    1  UNL1       -0.0003
     17 C          60.6270   90.3199    5.6627 C.ar    1  UNL1       -0.0026
     18 C          60.7167   92.8840    2.6349 C.ar    1  UNL1       -0.0000
     19 C          62.1690   92.8332    2.2632 C.ar    1  UNL1       -0.0001
     20 C          62.6842   93.6761    1.1344 C.ar    1  UNL1        0.0039
     21 C          61.7471   94.5697    0.3773 C.ar    1  UNL1        0.0714
     22 C          60.2947   94.6205    0.7490 C.ar    1  UNL1        0.0039
     23 C          59.7796   93.7777    1.8778 C.ar    1  UNL1       -0.0001
     24 C          62.2623   95.4125   -0.7515 C.3     1  UNL1        0.4186
     25 F          62.7774   96.2553   -1.8803 F       1  UNL1       -0.1659
     26 F          60.8910   95.9879   -0.9477 F       1  UNL1       -0.1659
     27 F          63.6335   94.8371   -0.5553 F       1  UNL1       -0.1659
     28 C          61.1482   87.8679    9.7639 C.3     1  UNL1        0.1934
     29 N          62.0470   88.2990   10.8848 N.ar    1  UNL1       -0.2972
     30 C          62.4485   89.7387   11.0128 C.ar    1  UNL1        0.0894
     31 C          63.3473   90.1698   12.1337 C.ar    1  UNL1        0.1095
     32 BR         63.7487   91.6094   12.2617 Br      1  UNL1       -0.0424
     33 C          63.8447   89.1613   13.1264 C.ar    1  UNL1        0.2886
     34 O          64.7435   89.5924   14.2473 O.2     1  UNL1       -0.2645
     35 N          63.4432   87.7217   12.9984 N.ar    1  UNL1       -0.1840
     36 C          62.5444   87.2906   11.8775 C.ar    1  UNL1        0.1751
     37 S          62.1430   85.8510   11.7494 S.3     1  UNL1       -0.0724
     38 C          63.1843   84.7733   11.8154 C.3     1  UNL1        0.0913
     39 C          62.8271   83.4167   12.3465 C.ar    1  UNL1       -0.0108
     40 C          62.2837   83.2752   13.7374 C.ar    1  UNL1       -0.0011
     41 C          61.9264   81.9186   14.2686 C.ar    1  UNL1        0.0293
     42 C          62.1126   80.7036   13.4089 C.ar    1  UNL1        0.1401
     43 F          61.7554   79.3471   13.9400 F       1  UNL1       -0.2042
     44 C          62.6560   80.8452   12.0179 C.ar    1  UNL1        0.0293
     45 C          63.0133   82.2017   11.4868 C.ar    1  UNL1       -0.0011
@<TRIPOS>BOND
     1     7     8    1
     2     8     6    1
     3     6     9    1
     4     9    10    1
     5     6     5    1
     6     5     4    1
     7     4     1    1
     8     1    11    1
     9    11    12    1
    10    12    13   ar
    11    13    14   ar
    12    14    15   ar
    13    15    18    1
    14    18    19   ar
    15    19    20   ar
    16    20    21   ar
    17    21    24    1
    18    24    25    1
    19    24    26    1
    20    24    27    1
    21    21    22   ar
    22    22    23   ar
    23    15    16   ar
    24    16    17   ar
    25     1     2   am
    26     2     3    2
    27     2    28    1
    28    28    29    1
    29    29    30   ar
    30    30    31   ar
    31    31    32    1
    32    31    33   ar
    33    33    34    2
    34    33    35   ar
    35    35    36   ar
    36    36    37    1
    37    37    38    1
    38    38    39    1
    39    39    40   ar
    40    40    41   ar
    41    41    42   ar
    42    42    43    1
    43    42    44   ar
    44    44    45   ar
    45    17    12   ar
    46    36    29   ar
    47    45    39   ar
    48    23    18   ar
@<TRIPOS>MOLECULE
*****
 45 48 0 0 0
SMALL
GASTEIGER

@<TRIPOS>ATOM
      1 N          63.4796   90.2825   11.7980 N.am    1  UNL1       -0.2724
      2 C          63.9603   91.5445   11.1450 C.2     1  UNL1        0.2491
      3 O          63.3325   92.0132    9.8659 O.2     1  UNL1       -0.2727
      4 C          64.1074   89.8138   13.0772 C.3     1  UNL1        0.1111
      5 C          63.2862   89.7321   14.3298 C.3     1  UNL1        0.0939
      6 N          63.6293   88.7250   15.3871 N.3     1  UNL1       -0.2712
      7 C          62.7454   87.6378   17.5750 C.3     1  UNL1        0.0188
      8 C          63.0583   88.8625   16.7674 C.3     1  UNL1        0.0722
      9 C          64.5433   87.5803   15.0641 C.3     1  UNL1        0.0722
     10 C          64.2308   86.2044   15.5734 C.3     1  UNL1        0.0188
     11 C          62.3712   89.4892   11.1718 C.3     1  UNL1        0.1202
     12 C          62.4577   87.9926   11.1181 C.ar    1  UNL1       -0.0023
     13 C          62.2630   87.2764    9.8147 C.ar    1  UNL1       -0.0026
     14 C          62.3494   85.7799    9.7610 C.ar    1  UNL1       -0.0003
     15 C          62.6306   84.9996   11.0109 C.ar    1  UNL1       -0.0000
     16 C          62.8253   85.7158   12.3143 C.ar    1  UNL1       -0.0003
     17 C          62.7388   87.2123   12.3680 C.ar    1  UNL1       -0.0026
     18 C          62.7170   83.5030   10.9572 C.ar    1  UNL1       -0.0000
     19 C          62.2129   82.6809   12.1060 C.ar    1  UNL1       -0.0001
     20 C          62.2993   81.1843   12.0523 C.ar    1  UNL1        0.0039
     21 C          62.8899   80.5099   10.8497 C.ar    1  UNL1        0.0714
     22 C          63.3941   81.3321    9.7008 C.ar    1  UNL1        0.0039
     23 C          63.3076   82.8286    9.7545 C.ar    1  UNL1       -0.0001
     24 C          62.9764   79.0134   10.7960 C.3     1  UNL1        0.4186
     25 F          63.0629   77.5169   10.7422 F       1  UNL1       -0.1659
     26 F          62.6822   78.9436   12.2652 F       1  UNL1       -0.1659
     27 F          63.2705   79.0831    9.3268 F       1  UNL1       -0.1659
     28 C          65.0687   92.3378   11.7713 C.3     1  UNL1        0.1934
     29 N          65.8335   93.3343   10.9515 N.ar    1  UNL1       -0.2972
     30 C          65.1667   94.5969   10.4918 C.ar    1  UNL1        0.0894
     31 C          65.9315   95.5934    9.6721 C.ar    1  UNL1        0.1095
     32 BR         65.2648   96.8560    9.2124 Br      1  UNL1       -0.0424
     33 C          67.3632   95.3274    9.3121 C.ar    1  UNL1        0.2886
     34 O          68.1281   96.3239    8.4924 O.2     1  UNL1       -0.2645
     35 N          68.0300   94.0648    9.7718 N.ar    1  UNL1       -0.1840
     36 C          67.2652   93.0683   10.5915 C.ar    1  UNL1        0.1751
     37 S          67.9319   91.8058   11.0512 S.3     1  UNL1       -0.0724
     38 C          68.6766   91.7820   12.3532 C.3     1  UNL1        0.0913
     39 C          67.9523   92.0611   13.6367 C.ar    1  UNL1       -0.0108
     40 C          66.6878   91.3219   13.9602 C.ar    1  UNL1       -0.0011
     41 C          65.9634   91.6010   15.2438 C.ar    1  UNL1        0.0293
     42 C          66.5035   92.6191   16.2037 C.ar    1  UNL1        0.1401
     43 F          65.7791   92.8982   17.4872 F       1  UNL1       -0.2042
     44 C          67.7680   93.3583   15.8801 C.ar    1  UNL1        0.0293
     45 C          68.4924   93.0793   14.5966 C.ar    1  UNL1       -0.0011
@<TRIPOS>BOND
     1     7     8    1
     2     8     6    1
     3     6     9    1
     4     9    10    1
     5     6     5    1
     6     5     4    1
     7     4     1    1
     8     1    11    1
     9    11    12    1
    10    12    13   ar
    11    13    14   ar
    12    14    15   ar
    13    15    18    1
    14    18    19   ar
    15    19    20   ar
    16    20    21   ar
    17    21    24    1
    18    24    25    1
    19    24    26    1
    20    24    27    1
    21    21    22   ar
    22    22    23   ar
    23    15    16   ar
    24    16    17   ar
    25     1     2   am
    26     2     3    2
    27     2    28    1
    28    28    29    1
    29    29    30   ar
    30    30    31   ar
    31    31    32    1
    32    31    33   ar
    33    33    34    2
    34    33    35   ar
    35    35    36   ar
    36    36    37    1
    37    37    38    1
    38    38    39    1
    39    39    40   ar
    40    40    41   ar
    41    41    42   ar
    42    42    43    1
    43    42    44   ar
    44    44    45   ar
    45    17    12   ar
    46    36    29   ar
    47    45    39   ar
    48    23    18   ar
@<TRIPOS>MOLECULE
*****
 45 48 0 0 0
SMALL
GASTEIGER

@<TRIPOS>ATOM
      1 N          61.2155   86.3598   10.6621 N.am    1  UNL1       -0.2724
      2 C          62.0385   85.2743   10.0342 C.2     1  UNL1        0.2491
      3 O          61.5607   84.5997    8.7826 O.2     1  UNL1       -0.2727
      4 C          61.6934   87.0344   11.9138 C.3     1  UNL1        0.1111
      5 C          62.5550   88.2589   11.8238 C.3     1  UNL1        0.0939
      6 N          61.9536   89.6164   12.0366 N.3     1  UNL1       -0.2712
      7 C          63.2062   91.2264   10.4275 C.3     1  UNL1        0.0188
      8 C          62.7825   90.8470   11.8155 C.3     1  UNL1        0.0722
      9 C          60.5234   89.7435   12.4706 C.3     1  UNL1        0.0722
     10 C          59.5446   90.4943   11.6172 C.3     1  UNL1        0.0188
     11 C          59.9148   86.7709   10.0383 C.3     1  UNL1        0.1202
     12 C          59.9047   87.7455    8.8981 C.ar    1  UNL1       -0.0023
     13 C          60.6620   89.0357    9.0075 C.ar    1  UNL1       -0.0026
     14 C          60.6518   90.0102    7.8673 C.ar    1  UNL1       -0.0003
     15 C          59.8844   89.6946    6.6177 C.ar    1  UNL1       -0.0000
     16 C          59.1270   88.4045    6.5084 C.ar    1  UNL1       -0.0003
     17 C          59.1372   87.4300    7.6485 C.ar    1  UNL1       -0.0026
     18 C          59.8742   90.6693    5.4775 C.ar    1  UNL1       -0.0000
     19 C          58.5899   91.3222    5.0603 C.ar    1  UNL1       -0.0001
     20 C          58.5797   92.2968    3.9201 C.ar    1  UNL1        0.0039
     21 C          59.8540   92.6185    3.1971 C.ar    1  UNL1        0.0714
     22 C          61.1384   91.9655    3.6143 C.ar    1  UNL1        0.0039
     23 C          61.1485   90.9910    4.7545 C.ar    1  UNL1       -0.0001
     24 C          59.8439   93.5931    2.0569 C.3     1  UNL1        0.4186
     25 F          59.8338   94.5677    0.9167 F       1  UNL1       -0.1659
     26 F          59.5202   92.4783    1.1069 F       1  UNL1       -0.1659
     27 F          60.1676   94.7078    3.0069 F       1  UNL1       -0.1659
     28 C          63.3393   84.8632   10.6580 C.3     1  UNL1        0.1934
     29 N          63.3846   83.6939   11.5965 N.ar    1  UNL1       -0.2972
     30 C          63.0091   82.3259   11.1090 C.ar    1  UNL1        0.0894
     31 C          63.0544   81.1567   12.0475 C.ar    1  UNL1        0.1095
     32 BR         62.6789   79.7887   11.5600 Br      1  UNL1       -0.0424
     33 C          63.4752   81.3554   13.4735 C.ar    1  UNL1        0.2886
     34 O          63.5205   80.1862   14.4120 O.2     1  UNL1       -0.2645
     35 N          63.8506   82.7234   13.9610 N.ar    1  UNL1       -0.1840
     36 C          63.8053   83.8926   13.0225 C.ar    1  UNL1        0.1751
     37 S          64.1808   85.2606   13.5100 S.3     1  UNL1       -0.0724
     38 C          64.0679   85.5944   14.9680 C.3     1  UNL1        0.0913
     39 C          63.8968   87.0206   15.3999 C.ar    1  UNL1       -0.0108
     40 C          64.4123   88.1329   14.5356 C.ar    1  UNL1       -0.0011
     41 C          64.2413   89.5592   14.9674 C.ar    1  UNL1        0.0293
     42 C          63.5546   89.8732   16.2635 C.ar    1  UNL1        0.1401
     43 F          63.3835   91.2994   16.6954 F       1  UNL1       -0.2042
     44 C          63.0391   88.7608   17.1278 C.ar    1  UNL1        0.0293
     45 C          63.2102   87.3346   16.6960 C.ar    1  UNL1       -0.0011
@<TRIPOS>BOND
     1     7     8    1
     2     8     6    1
     3     6     9    1
     4     9    10    1
     5     6     5    1
     6     5     4    1
     7     4     1    1
     8     1    11    1
     9    11    12    1
    10    12    13   ar
    11    13    14   ar
    12    14    15   ar
    13    15    18    1
    14    18    19   ar
    15    19    20   ar
    16    20    21   ar
    17    21    24    1
    18    24    25    1
    19    24    26    1
    20    24    27    1
    21    21    22   ar
    22    22    23   ar
    23    15    16   ar
    24    16    17   ar
    25     1     2   am
    26     2     3    2
    27     2    28    1
    28    28    29    1
    29    29    30   ar
    30    30    31   ar
    31    31    32    1
    32    31    33   ar
    33    33    34    2
    34    33    35   ar
    35    35    36   ar
    36    36    37    1
    37    37    38    1
    38    38    39    1
    39    39    40   ar
    40    40    41   ar
    41    41    42   ar
    42    42    43    1
    43    42    44   ar
    44    44    45   ar
    45    17    12   ar
    46    36    29   ar
    47    45    39   ar
    48    23    18   ar
@<TRIPOS>MOLECULE
*****
 45 48 0 0 0
SMALL
GASTEIGER

@<TRIPOS>ATOM
      1 N          61.5408   87.3110   11.4027 N.am    1  UNL1       -0.2724
      2 C          62.0214   88.4180   12.2936 C.2     1  UNL1        0.2491
      3 O          61.1939   89.6576   12.4625 O.2     1  UNL1       -0.2727
      4 C          62.3683   86.0713   11.2338 C.3     1  UNL1        0.1111
      5 C          61.9950   85.0562   10.1946 C.3     1  UNL1        0.0939
      6 N          63.0357   84.5325    9.2498 N.3     1  UNL1       -0.2712
      7 C          63.7325   82.4463   10.6326 C.3     1  UNL1        0.0188
      8 C          64.1002   83.6006    9.7481 C.3     1  UNL1        0.0722
      9 C          63.0120   84.9408    7.8066 C.3     1  UNL1        0.0722
     10 C          61.7023   85.0876    7.0901 C.3     1  UNL1        0.0188
     11 C          60.2327   87.4437   10.6807 C.3     1  UNL1        0.1202
     12 C          60.1455   88.2709    9.4324 C.ar    1  UNL1       -0.0023
     13 C          59.3779   87.7628    8.2481 C.ar    1  UNL1       -0.0026
     14 C          59.2907   88.5900    6.9999 C.ar    1  UNL1       -0.0003
     15 C          59.9712   89.9253    6.9360 C.ar    1  UNL1       -0.0000
     16 C          60.7388   90.4333    8.1203 C.ar    1  UNL1       -0.0003
     17 C          60.8260   89.6061    9.3685 C.ar    1  UNL1       -0.0026
     18 C          59.8840   90.7525    5.6877 C.ar    1  UNL1       -0.0000
     19 C          61.1205   91.0342    4.8867 C.ar    1  UNL1       -0.0001
     20 C          61.0333   91.8614    3.6384 C.ar    1  UNL1        0.0039
     21 C          59.7095   92.4069    3.1912 C.ar    1  UNL1        0.0714
     22 C          58.4730   92.1252    3.9922 C.ar    1  UNL1        0.0039
     23 C          58.5602   91.2980    5.2404 C.ar    1  UNL1       -0.0001
     24 C          59.6223   93.2341    1.9429 C.3     1  UNL1        0.4186
     25 F          59.5351   94.0612    0.6947 F       1  UNL1       -0.1659
     26 F          59.9967   94.4568    2.7270 F       1  UNL1       -0.1659
     27 F          59.2479   92.0114    1.1589 F       1  UNL1       -0.1659
     28 C          63.3295   88.2852   13.0156 C.3     1  UNL1        0.1934
     29 N          63.8783   89.4449   13.7928 N.ar    1  UNL1       -0.2972
     30 C          64.7170   90.4801   13.1035 C.ar    1  UNL1        0.0894
     31 C          65.2657   91.6398   13.8807 C.ar    1  UNL1        0.1095
     32 BR         66.1043   92.6750   13.1915 Br      1  UNL1       -0.0424
     33 C          64.9757   91.7643   15.3472 C.ar    1  UNL1        0.2886
     34 O          65.5244   92.9240   16.1244 O.2     1  UNL1       -0.2645
     35 N          64.1370   90.7292   16.0364 N.ar    1  UNL1       -0.1840
     36 C          63.5883   89.5695   15.2592 C.ar    1  UNL1        0.1751
     37 S          62.7496   88.5343   15.9484 S.3     1  UNL1       -0.0724
     38 C          63.4067   87.3882   16.6588 C.3     1  UNL1        0.0913
     39 C          63.5804   86.0727   15.9594 C.ar    1  UNL1       -0.0108
     40 C          62.5811   84.9739   16.1694 C.ar    1  UNL1       -0.0011
     41 C          62.7548   83.6583   15.4700 C.ar    1  UNL1        0.0293
     42 C          63.9279   83.4415   14.5606 C.ar    1  UNL1        0.1401
     43 F          64.1016   82.1260   13.8613 F       1  UNL1       -0.2042
     44 C          64.9272   84.5403   14.3507 C.ar    1  UNL1        0.0293
     45 C          64.7535   85.8558   15.0501 C.ar    1  UNL1       -0.0011
@<TRIPOS>BOND
     1     7     8    1
     2     8     6    1
     3     6     9    1
     4     9    10    1
     5     6     5    1
     6     5     4    1
     7     4     1    1
     8     1    11    1
     9    11    12    1
    10    12    13   ar
    11    13    14   ar
    12    14    15   ar
    13    15    18    1
    14    18    19   ar
    15    19    20   ar
    16    20    21   ar
    17    21    24    1
    18    24    25    1
    19    24    26    1
    20    24    27    1
    21    21    22   ar
    22    22    23   ar
    23    15    16   ar
    24    16    17   ar
    25     1     2   am
    26     2     3    2
    27     2    28    1
    28    28    29    1
    29    29    30   ar
    30    30    31   ar
    31    31    32    1
    32    31    33   ar
    33    33    34    2
    34    33    35   ar
    35    35    36   ar
    36    36    37    1
    37    37    38    1
    38    38    39    1
    39    39    40   ar
    40    40    41   ar
    41    41    42   ar
    42    42    43    1
    43    42    44   ar
    44    44    45   ar
    45    17    12   ar
    46    36    29   ar
    47    45    39   ar
    48    23    18   ar
@<TRIPOS>MOLECULE
*****
 45 48 0 0 0
SMALL
GASTEIGER

@<TRIPOS>ATOM
      1 N          60.7590   87.6585   11.2057 N.am    1  UNL1       -0.2724
      2 C          60.4822   88.8267   12.1051 C.2     1  UNL1        0.2491
      3 O          59.3102   89.7221   11.8322 O.2     1  UNL1       -0.2727
      4 C          61.9311   86.7631   11.4787 C.3     1  UNL1        0.1111
      5 C          61.9099   85.3372   11.0135 C.3     1  UNL1        0.0939
      6 N          62.7887   84.9060    9.8770 N.3     1  UNL1       -0.2712
      7 C          64.1010   83.2543   11.3935 C.3     1  UNL1        0.0188
      8 C          63.6747   83.7050   10.0278 C.3     1  UNL1        0.0722
      9 C          62.7815   85.6757    8.5895 C.3     1  UNL1        0.0722
     10 C          61.7838   85.3403    7.5208 C.3     1  UNL1        0.0188
     11 C          59.8638   87.3859   10.0335 C.3     1  UNL1        0.1202
     12 C          59.9130   88.2781    8.8287 C.ar    1  UNL1       -0.0023
     13 C          60.8318   89.4636    8.8103 C.ar    1  UNL1       -0.0026
     14 C          60.8809   90.3558    7.6056 C.ar    1  UNL1       -0.0003
     15 C          60.0112   90.0625    6.4191 C.ar    1  UNL1       -0.0000
     16 C          59.0924   88.8770    6.4375 C.ar    1  UNL1       -0.0003
     17 C          59.0433   87.9849    7.6423 C.ar    1  UNL1       -0.0026
     18 C          60.0603   90.9548    5.2143 C.ar    1  UNL1       -0.0000
     19 C          61.3638   91.1958    4.5122 C.ar    1  UNL1       -0.0001
     20 C          61.4129   92.0881    3.3074 C.ar    1  UNL1        0.0039
     21 C          60.1586   92.7393    2.8047 C.ar    1  UNL1        0.0714
     22 C          58.8551   92.4982    3.5069 C.ar    1  UNL1        0.0039
     23 C          58.8060   91.6060    4.7116 C.ar    1  UNL1       -0.0001
     24 C          60.2077   93.6315    1.6000 C.3     1  UNL1        0.4186
     25 F          60.2568   94.5238    0.3952 F       1  UNL1       -0.1659
     26 F          58.8174   93.2077    1.2295 F       1  UNL1       -0.1659
     27 F          61.5980   94.0553    1.9705 F       1  UNL1       -0.1659
     28 C          61.3775   89.0993   13.2774 C.3     1  UNL1        0.1934
     29 N          62.5295   90.0496   13.1362 N.ar    1  UNL1       -0.2972
     30 C          62.9058   90.5763   11.7831 C.ar    1  UNL1        0.0894
     31 C          64.0578   91.5265   11.6419 C.ar    1  UNL1        0.1095
     32 BR         64.4341   92.0532   10.2888 Br      1  UNL1       -0.0424
     33 C          64.8335   91.9501   12.8539 C.ar    1  UNL1        0.2886
     34 O          65.9855   92.9003   12.7128 O.2     1  UNL1       -0.2645
     35 N          64.4572   91.4233   14.2070 N.ar    1  UNL1       -0.1840
     36 C          63.3052   90.4731   14.3482 C.ar    1  UNL1        0.1751
     37 S          62.9289   89.9464   15.7013 S.3     1  UNL1       -0.0724
     38 C          63.7895   88.9164   16.3711 C.3     1  UNL1        0.0913
     39 C          63.6636   87.4711   15.9900 C.ar    1  UNL1       -0.0108
     40 C          62.8763   86.5330   16.8561 C.ar    1  UNL1       -0.0011
     41 C          62.7504   85.0876   16.4750 C.ar    1  UNL1        0.0293
     42 C          63.4117   84.5805   15.2278 C.ar    1  UNL1        0.1401
     43 F          63.2858   83.1352   14.8467 F       1  UNL1       -0.2042
     44 C          64.1990   85.5187   14.3617 C.ar    1  UNL1        0.0293
     45 C          64.3249   86.9640   14.7428 C.ar    1  UNL1       -0.0011
@<TRIPOS>BOND
     1     7     8    1
     2     8     6    1
     3     6     9    1
     4     9    10    1
     5     6     5    1
     6     5     4    1
     7     4     1    1
     8     1    11    1
     9    11    12    1
    10    12    13   ar
    11    13    14   ar
    12    14    15   ar
    13    15    18    1
    14    18    19   ar
    15    19    20   ar
    16    20    21   ar
    17    21    24    1
    18    24    25    1
    19    24    26    1
    20    24    27    1
    21    21    22   ar
    22    22    23   ar
    23    15    16   ar
    24    16    17   ar
    25     1     2   am
    26     2     3    2
    27     2    28    1
    28    28    29    1
    29    29    30   ar
    30    30    31   ar
    31    31    32    1
    32    31    33   ar
    33    33    34    2
    34    33    35   ar
    35    35    36   ar
    36    36    37    1
    37    37    38    1
    38    38    39    1
    39    39    40   ar
    40    40    41   ar
    41    41    42   ar
    42    42    43    1
    43    42    44   ar
    44    44    45   ar
    45    17    12   ar
    46    36    29   ar
    47    45    39   ar
    48    23    18   ar
@<TRIPOS>MOLECULE
*****
 45 48 0 0 0
SMALL
GASTEIGER

@<TRIPOS>ATOM
      1 N          59.6132   92.8449    1.1060 N.am    1  UNL1       -0.2724
      2 C          61.0942   92.8762    0.8705 C.2     1  UNL1        0.2491
      3 O          62.0236   93.2487    1.9874 O.2     1  UNL1       -0.2727
      4 C          58.6838   92.4724   -0.0110 C.3     1  UNL1        0.1111
      5 C          57.4251   93.2575   -0.2327 C.3     1  UNL1        0.0939
      6 N          57.4960   94.6436   -0.8015 N.3     1  UNL1       -0.2712
      7 C          59.0820   96.6304   -1.3374 C.3     1  UNL1        0.0188
      8 C          58.6068   95.5656   -0.3939 C.3     1  UNL1        0.0722
      9 C          56.4563   95.1077   -1.7780 C.3     1  UNL1        0.0722
     10 C          55.0929   94.4820   -1.7758 C.3     1  UNL1        0.0188
     11 C          59.0615   93.1862    2.4584 C.3     1  UNL1        0.1202
     12 C          59.2915   92.2620    3.6173 C.ar    1  UNL1       -0.0023
     13 C          58.1290   91.7755    4.4308 C.ar    1  UNL1       -0.0026
     14 C          58.3591   90.8513    5.5897 C.ar    1  UNL1       -0.0003
     15 C          59.7517   90.4138    5.9350 C.ar    1  UNL1       -0.0000
     16 C          60.9142   90.9003    5.1215 C.ar    1  UNL1       -0.0003
     17 C          60.6841   91.8245    3.9627 C.ar    1  UNL1       -0.0026
     18 C          59.9817   89.4896    7.0940 C.ar    1  UNL1       -0.0000
     19 C          59.4765   88.0783    7.0396 C.ar    1  UNL1       -0.0001
     20 C          59.7065   87.1541    8.1985 C.ar    1  UNL1        0.0039
     21 C          60.4418   87.6413    9.4118 C.ar    1  UNL1        0.0714
     22 C          60.9471   89.0526    9.4661 C.ar    1  UNL1        0.0039
     23 C          60.7171   89.9767    8.3072 C.ar    1  UNL1       -0.0001
     24 C          60.6719   86.7172   10.5707 C.3     1  UNL1        0.4186
     25 F          60.9019   85.7931   11.7295 F       1  UNL1       -0.1659
     26 F          61.2589   85.6971    9.6407 F       1  UNL1       -0.1659
     27 F          60.0849   87.7372   11.5006 F       1  UNL1       -0.1659
     28 C          61.6459   92.5349   -0.4820 C.3     1  UNL1        0.1934
     29 N          62.2149   93.6145   -1.3542 N.ar    1  UNL1       -0.2972
     30 C          63.4920   94.2982   -0.9647 C.ar    1  UNL1        0.0894
     31 C          64.0609   95.3779   -1.8368 C.ar    1  UNL1        0.1095
     32 BR         65.3380   96.0615   -1.4473 Br      1  UNL1       -0.0424
     33 C          63.3528   95.7738   -3.0985 C.ar    1  UNL1        0.2886
     34 O          63.9217   96.8535   -3.9707 O.2     1  UNL1       -0.2645
     35 N          62.0757   95.0901   -3.4880 N.ar    1  UNL1       -0.1840
     36 C          61.5068   94.0105   -2.6158 C.ar    1  UNL1        0.1751
     37 S          60.2298   93.3268   -3.0053 S.3     1  UNL1       -0.0724
     38 C          59.2915   93.9851   -3.9730 C.3     1  UNL1        0.0913
     39 C          58.1392   93.2129   -4.5437 C.ar    1  UNL1       -0.0108
     40 C          57.7170   93.4368   -5.9655 C.ar    1  UNL1       -0.0011
     41 C          56.5647   92.6645   -6.5362 C.ar    1  UNL1        0.0293
     42 C          55.8345   91.6683   -5.6851 C.ar    1  UNL1        0.1401
     43 F          54.6822   90.8960   -6.2558 F       1  UNL1       -0.2042
     44 C          56.2567   91.4444   -4.2632 C.ar    1  UNL1        0.0293
     45 C          57.4090   92.2166   -3.6925 C.ar    1  UNL1       -0.0011
@<TRIPOS>BOND
     1     7     8    1
     2     8     6    1
     3     6     9    1
     4     9    10    1
     5     6     5    1
     6     5     4    1
     7     4     1    1
     8     1    11    1
     9    11    12    1
    10    12    13   ar
    11    13    14   ar
    12    14    15   ar
    13    15    18    1
    14    18    19   ar
    15    19    20   ar
    16    20    21   ar
    17    21    24    1
    18    24    25    1
    19    24    26    1
    20    24    27    1
    21    21    22   ar
    22    22    23   ar
    23    15    16   ar
    24    16    17   ar
    25     1     2   am
    26     2     3    2
    27     2    28    1
    28    28    29    1
    29    29    30   ar
    30    30    31   ar
    31    31    32    1
    32    31    33   ar
    33    33    34    2
    34    33    35   ar
    35    35    36   ar
    36    36    37    1
    37    37    38    1
    38    38    39    1
    39    39    40   ar
    40    40    41   ar
    41    41    42   ar
    42    42    43    1
    43    42    44   ar
    44    44    45   ar
    45    17    12   ar
    46    36    29   ar
    47    45    39   ar
    48    23    18   ar
@<TRIPOS>MOLECULE
*****
 45 48 0 0 0
SMALL
GASTEIGER

@<TRIPOS>ATOM
      1 N          61.4632   86.8913   11.5197 N.am    1  UNL1       -0.2724
      2 C          62.2231   85.6571   11.9058 C.2     1  UNL1        0.2491
      3 O          61.8055   84.3204   11.3686 O.2     1  UNL1       -0.2727
      4 C          61.8809   88.2281   12.0569 C.3     1  UNL1        0.1111
      5 C          63.1713   88.8470   11.6078 C.3     1  UNL1        0.0939
      6 N          63.4321   90.3027   11.8585 N.3     1  UNL1       -0.2712
      7 C          64.5989   92.3206   10.7110 C.3     1  UNL1        0.0188
      8 C          63.5440   91.2543   10.7043 C.3     1  UNL1        0.0722
      9 C          63.5811   90.8069   13.2634 C.3     1  UNL1        0.0722
     10 C          64.9306   90.8147   13.9182 C.3     1  UNL1        0.0188
     11 C          60.2856   86.7888   10.5963 C.3     1  UNL1        0.1202
     12 C          60.1744   87.7098    9.4175 C.ar    1  UNL1       -0.0023
     13 C          59.6920   87.1843    8.0980 C.ar    1  UNL1       -0.0026
     14 C          59.5808   88.1052    6.9193 C.ar    1  UNL1       -0.0003
     15 C          59.9520   89.5517    7.0601 C.ar    1  UNL1       -0.0000
     16 C          60.4343   90.0773    8.3795 C.ar    1  UNL1       -0.0003
     17 C          60.5455   89.1563    9.5582 C.ar    1  UNL1       -0.0026
     18 C          59.8408   90.4727    5.8812 C.ar    1  UNL1       -0.0000
     19 C          58.5001   91.0033    5.4678 C.ar    1  UNL1       -0.0001
     20 C          58.3889   91.9242    4.2890 C.ar    1  UNL1        0.0039
     21 C          59.6184   92.3147    3.5237 C.ar    1  UNL1        0.0714
     22 C          60.9592   91.7841    3.9372 C.ar    1  UNL1        0.0039
     23 C          61.0704   90.8631    5.1159 C.ar    1  UNL1       -0.0001
     24 C          59.5073   93.2356    2.3450 C.3     1  UNL1        0.4186
     25 F          59.3961   94.1565    1.1662 F       1  UNL1       -0.1659
     26 F          60.1468   94.3334    3.1423 F       1  UNL1       -0.1659
     27 F          58.8677   92.1378    1.5476 F       1  UNL1       -0.1659
     28 C          63.4008   85.7597   12.8293 C.3     1  UNL1        0.1934
     29 N          63.1866   86.0069   14.2932 N.ar    1  UNL1       -0.2972
     30 C          63.3724   87.3848   14.8562 C.ar    1  UNL1        0.0894
     31 C          63.1583   87.6320   16.3201 C.ar    1  UNL1        0.1095
     32 BR         63.3441   89.0099   16.8831 Br      1  UNL1       -0.0424
     33 C          62.7583   86.5013   17.2210 C.ar    1  UNL1        0.2886
     34 O          62.5442   86.7485   18.6849 O.2     1  UNL1       -0.2645
     35 N          62.5726   85.1235   16.6580 N.ar    1  UNL1       -0.1840
     36 C          62.7867   84.8763   15.1941 C.ar    1  UNL1        0.1751
     37 S          62.6010   83.4984   14.6311 S.3     1  UNL1       -0.0724
     38 C          63.7620   82.7786   14.0114 C.3     1  UNL1        0.0913
     39 C          63.5497   81.9105   12.8067 C.ar    1  UNL1       -0.0108
     40 C          64.0335   82.3636   11.4612 C.ar    1  UNL1       -0.0011
     41 C          63.8212   81.4955   10.2564 C.ar    1  UNL1        0.0293
     42 C          63.1253   80.1742   10.3973 C.ar    1  UNL1        0.1401
     43 F          62.9130   79.3061    9.1926 F       1  UNL1       -0.2042
     44 C          62.6415   79.7211   11.7430 C.ar    1  UNL1        0.0293
     45 C          62.8537   80.5892   12.9476 C.ar    1  UNL1       -0.0011
@<TRIPOS>BOND
     1     7     8    1
     2     8     6    1
     3     6     9    1
     4     9    10    1
     5     6     5    1
     6     5     4    1
     7     4     1    1
     8     1    11    1
     9    11    12    1
    10    12    13   ar
    11    13    14   ar
    12    14    15   ar
    13    15    18    1
    14    18    19   ar
    15    19    20   ar
    16    20    21   ar
    17    21    24    1
    18    24    25    1
    19    24    26    1
    20    24    27    1
    21    21    22   ar
    22    22    23   ar
    23    15    16   ar
    24    16    17   ar
    25     1     2   am
    26     2     3    2
    27     2    28    1
    28    28    29    1
    29    29    30   ar
    30    30    31   ar
    31    31    32    1
    32    31    33   ar
    33    33    34    2
    34    33    35   ar
    35    35    36   ar
    36    36    37    1
    37    37    38    1
    38    38    39    1
    39    39    40   ar
    40    40    41   ar
    41    41    42   ar
    42    42    43    1
    43    42    44   ar
    44    44    45   ar
    45    17    12   ar
    46    36    29   ar
    47    45    39   ar
    48    23    18   ar
@<TRIPOS>MOLECULE
*****
 45 48 0 0 0
SMALL
GASTEIGER

@<TRIPOS>ATOM
      1 N          61.6832   86.9389   11.0518 N.am    1  UNL1       -0.2724
      2 C          62.0928   88.1141   11.8891 C.2     1  UNL1        0.2491
      3 O          61.2268   89.3377   11.9389 O.2     1  UNL1       -0.2727
      4 C          62.5493   85.7151   11.0021 C.3     1  UNL1        0.1111
      5 C          61.9719   84.3733   11.3425 C.3     1  UNL1        0.0939
      6 N          62.8772   83.2486   11.7494 N.3     1  UNL1       -0.2712
      7 C          65.0705   83.5046   13.1184 C.3     1  UNL1        0.0188
      8 C          64.3615   83.4604   11.7973 C.3     1  UNL1        0.0722
      9 C          62.2983   81.9122   12.1083 C.3     1  UNL1        0.0722
     10 C          62.0548   81.5622   13.5465 C.3     1  UNL1        0.0188
     11 C          60.4076   86.9873   10.2642 C.3     1  UNL1        0.1202
     12 C          60.2864   87.9115    9.0889 C.ar    1  UNL1       -0.0023
     13 C          59.5304   87.4774    7.8683 C.ar    1  UNL1       -0.0026
     14 C          59.4092   88.4016    6.6931 C.ar    1  UNL1       -0.0003
     15 C          60.0440   89.7599    6.7385 C.ar    1  UNL1       -0.0000
     16 C          60.8000   90.1940    7.9591 C.ar    1  UNL1       -0.0003
     17 C          60.9212   89.2698    9.1344 C.ar    1  UNL1       -0.0026
     18 C          59.9228   90.6841    5.5632 C.ar    1  UNL1       -0.0000
     19 C          61.1408   91.0496    4.7678 C.ar    1  UNL1       -0.0001
     20 C          61.0196   91.9738    3.5925 C.ar    1  UNL1        0.0039
     21 C          59.6804   92.5324    3.2127 C.ar    1  UNL1        0.0714
     22 C          58.4623   92.1669    4.0082 C.ar    1  UNL1        0.0039
     23 C          58.5835   91.2427    5.1834 C.ar    1  UNL1       -0.0001
     24 C          59.5591   93.4566    2.0375 C.3     1  UNL1        0.4186
     25 F          59.4379   94.3807    0.8623 F       1  UNL1       -0.1659
     26 F          58.9813   92.3402    1.2192 F       1  UNL1       -0.1659
     27 F          60.1370   94.5730    2.8558 F       1  UNL1       -0.1659
     28 C          63.3685   88.0656   12.6767 C.3     1  UNL1        0.1934
     29 N          63.3459   87.6430   14.1158 N.ar    1  UNL1       -0.2972
     30 C          63.3284   86.1853   14.4692 C.ar    1  UNL1        0.0894
     31 C          63.3057   85.7627   15.9083 C.ar    1  UNL1        0.1095
     32 BR         63.2882   84.3051   16.2617 Br      1  UNL1       -0.0424
     33 C          63.3006   86.7978   16.9939 C.ar    1  UNL1        0.2886
     34 O          63.2779   86.3752   18.4330 O.2     1  UNL1       -0.2645
     35 N          63.3181   88.2554   16.6405 N.ar    1  UNL1       -0.1840
     36 C          63.3407   88.6780   15.2014 C.ar    1  UNL1        0.1751
     37 S          63.3582   90.1356   14.8479 S.3     1  UNL1       -0.0724
     38 C          64.6606   90.8777   14.7898 C.3     1  UNL1        0.0913
     39 C          65.1354   91.4588   13.4911 C.ar    1  UNL1       -0.0108
     40 C          64.2291   91.4639   12.2959 C.ar    1  UNL1       -0.0011
     41 C          64.7039   92.0449   10.9970 C.ar    1  UNL1        0.0293
     42 C          66.0850   92.6209   10.8934 C.ar    1  UNL1        0.1401
     43 F          66.5599   93.2019    9.5946 F       1  UNL1       -0.2042
     44 C          66.9914   92.6158   12.0887 C.ar    1  UNL1        0.0293
     45 C          66.5165   92.0347   13.3875 C.ar    1  UNL1       -0.0011
@<TRIPOS>BOND
     1     7     8    1
     2     8     6    1
     3     6     9    1
     4     9    10    1
     5     6     5    1
     6     5     4    1
     7     4     1    1
     8     1    11    1
     9    11    12    1
    10    12    13   ar
    11    13    14   ar
    12    14    15   ar
    13    15    18    1
    14    18    19   ar
    15    19    20   ar
    16    20    21   ar
    17    21    24    1
    18    24    25    1
    19    24    26    1
    20    24    27    1
    21    21    22   ar
    22    22    23   ar
    23    15    16   ar
    24    16    17   ar
    25     1     2   am
    26     2     3    2
    27     2    28    1
    28    28    29    1
    29    29    30   ar
    30    30    31   ar
    31    31    32    1
    32    31    33   ar
    33    33    34    2
    34    33    35   ar
    35    35    36   ar
    36    36    37    1
    37    37    38    1
    38    38    39    1
    39    39    40   ar
    40    40    41   ar
    41    41    42   ar
    42    42    43    1
    43    42    44   ar
    44    44    45   ar
    45    17    12   ar
    46    36    29   ar
    47    45    39   ar
    48    23    18   ar
@<TRIPOS>MOLECULE
*****
 45 48 0 0 0
SMALL
GASTEIGER

@<TRIPOS>ATOM
      1 N          59.4431   93.1757    1.4818 N.am    1  UNL1       -0.2724
      2 C          60.2508   94.4019    1.1750 C.2     1  UNL1        0.2491
      3 O          60.1980   95.5846    2.0961 O.2     1  UNL1       -0.2727
      4 C          59.4960   91.9930    0.5606 C.3     1  UNL1        0.1111
      5 C          59.4876   92.1986   -0.9252 C.3     1  UNL1        0.0939
      6 N          58.2243   92.6168   -1.6173 N.3     1  UNL1       -0.2712
      7 C          56.5702   91.7903   -3.4424 C.3     1  UNL1        0.0188
      8 C          57.9590   92.1744   -3.0259 C.3     1  UNL1        0.0722
      9 C          57.2261   93.4773   -0.9009 C.3     1  UNL1        0.0722
     10 C          57.1550   94.9466   -1.1947 C.3     1  UNL1        0.0188
     11 C          58.5825   93.1323    2.7095 C.3     1  UNL1        0.1202
     12 C          58.9079   92.1778    3.8201 C.ar    1  UNL1       -0.0023
     13 C          60.3342   91.8012    4.0916 C.ar    1  UNL1       -0.0026
     14 C          60.6595   90.8468    5.2021 C.ar    1  UNL1       -0.0003
     15 C          59.5585   90.2690    6.0411 C.ar    1  UNL1       -0.0000
     16 C          58.1322   90.6456    5.7696 C.ar    1  UNL1       -0.0003
     17 C          57.8069   91.6000    4.6591 C.ar    1  UNL1       -0.0026
     18 C          59.8839   89.3145    7.1516 C.ar    1  UNL1       -0.0000
     19 C          59.6096   87.8492    6.9857 C.ar    1  UNL1       -0.0001
     20 C          59.9350   86.8948    8.0962 C.ar    1  UNL1        0.0039
     21 C          60.5346   87.4057    9.3727 C.ar    1  UNL1        0.0714
     22 C          60.8088   88.8711    9.5386 C.ar    1  UNL1        0.0039
     23 C          60.4835   89.8255    8.4281 C.ar    1  UNL1       -0.0001
     24 C          60.8600   86.4513   10.4832 C.3     1  UNL1        0.4186
     25 F          61.1853   85.4970   11.5937 F       1  UNL1       -0.1659
     26 F          61.4392   85.4904    9.4877 F       1  UNL1       -0.1659
     27 F          60.2807   87.4123   11.4787 F       1  UNL1       -0.1659
     28 C          61.1114   94.4454   -0.0528 C.3     1  UNL1        0.1934
     29 N          62.4835   95.0479    0.0139 N.ar    1  UNL1       -0.2972
     30 C          63.2213   95.0903    1.3193 C.ar    1  UNL1        0.0894
     31 C          64.5933   95.6927    1.3860 C.ar    1  UNL1        0.1095
     32 BR         65.3311   95.7352    2.6913 Br      1  UNL1       -0.0424
     33 C          65.2276   96.2528    0.1474 C.ar    1  UNL1        0.2886
     34 O          66.5997   96.8553    0.2142 O.2     1  UNL1       -0.2645
     35 N          64.4898   96.2104   -1.1579 N.ar    1  UNL1       -0.1840
     36 C          63.1177   95.6079   -1.2246 C.ar    1  UNL1        0.1751
     37 S          62.3799   95.5655   -2.5299 S.3     1  UNL1       -0.0724
     38 C          63.1096   95.8329   -3.8129 C.3     1  UNL1        0.0913
     39 C          63.7644   94.7043   -4.5527 C.ar    1  UNL1       -0.0108
     40 C          63.1697   93.3282   -4.5002 C.ar    1  UNL1       -0.0011
     41 C          63.8244   92.1994   -5.2400 C.ar    1  UNL1        0.0293
     42 C          65.0739   92.4468   -6.0323 C.ar    1  UNL1        0.1401
     43 F          65.7287   91.3181   -6.7720 F       1  UNL1       -0.2042
     44 C          65.6686   93.8229   -6.0847 C.ar    1  UNL1        0.0293
     45 C          65.0138   94.9516   -5.3450 C.ar    1  UNL1       -0.0011
@<TRIPOS>BOND
     1     7     8    1
     2     8     6    1
     3     6     9    1
     4     9    10    1
     5     6     5    1
     6     5     4    1
     7     4     1    1
     8     1    11    1
     9    11    12    1
    10    12    13   ar
    11    13    14   ar
    12    14    15   ar
    13    15    18    1
    14    18    19   ar
    15    19    20   ar
    16    20    21   ar
    17    21    24    1
    18    24    25    1
    19    24    26    1
    20    24    27    1
    21    21    22   ar
    22    22    23   ar
    23    15    16   ar
    24    16    17   ar
    25     1     2   am
    26     2     3    2
    27     2    28    1
    28    28    29    1
    29    29    30   ar
    30    30    31   ar
    31    31    32    1
    32    31    33   ar
    33    33    34    2
    34    33    35   ar
    35    35    36   ar
    36    36    37    1
    37    37    38    1
    38    38    39    1
    39    39    40   ar
    40    40    41   ar
    41    41    42   ar
    42    42    43    1
    43    42    44   ar
    44    44    45   ar
    45    17    12   ar
    46    36    29   ar
    47    45    39   ar
    48    23    18   ar
