@<TRIPOS>MOLECULE
*****
 26 29 0 0 0
SMALL
GASTEIGER

@<TRIPOS>ATOM
      1 C          63.5106   82.4507   12.3839 C.2     1  UNL1        0.0919
      2 C          63.8597   81.9780   13.7640 C.2     1  UNL1        0.0183
      3 C          64.0674   82.9728   14.8673 C.2     1  UNL1        0.0511
      4 C          63.9260   84.4402   14.5905 C.2     1  UNL1        0.2322
      5 N          64.0703   85.6462   15.4707 N.2     1  UNL1       -0.0308
      6 C          63.8104   86.8642   14.6346 C.2     1  UNL1        0.3767
      7 N          63.5055   86.4110   13.2376 N.2     1  UNL1       -0.0346
      8 C          63.5769   84.9129   13.2104 C.2     1  UNL1        0.2191
      9 C          63.3692   83.9181   12.1071 C.3     1  UNL1        0.1226
     10 C          63.8487   88.2858   15.1118 C.ar    1  UNL1        0.1075
     11 C          63.2631   88.6453   16.4451 C.ar    1  UNL1        0.1065
     12 N          63.3014   90.0669   16.9224 N.ar    1  UNL1       -0.2421
     13 C          63.9253   91.1288   16.0663 C.ar    1  UNL1        0.0988
     14 C          64.5110   90.7692   14.7330 C.ar    1  UNL1        0.0194
     15 C          64.4727   89.3477   14.2557 C.ar    1  UNL1        0.0108
     16 C          65.1349   91.8312   13.8768 C.ar    1  UNL1        0.0015
     17 C          64.8119   91.9009   12.4137 C.ar    1  UNL1        0.0000
     18 C          65.4359   92.9629   11.5577 C.ar    1  UNL1        0.0000
     19 C          66.3828   93.9552   12.1648 C.ar    1  UNL1        0.0000
     20 C          66.7058   93.8856   13.6279 C.ar    1  UNL1        0.0000
     21 C          66.0819   92.8236   14.4839 C.ar    1  UNL1        0.0000
     22 S          63.3029   81.4559   11.2806 S.O2    1  UNL1        0.0054
     23 O          63.8814   82.4278   10.2953 O.2     1  UNL1       -0.1689
     24 O          62.7243   80.4840   12.2658 O.2     1  UNL1       -0.1689
     25 C          62.7681   79.0345   10.5055 C.3     1  UNL1        0.0276
     26 C          63.0952   80.4611   10.1773 C.3     1  UNL1        0.1556
@<TRIPOS>BOND
     1    25    26    1
     2    26    22    1
     3    22    23    2
     4    22    24    2
     5    22     1    1
     6     1     2    2
     7     2     3    1
     8     3     4    2
     9     4     5    1
    10     5     6    2
    11     6    10    1
    12    10    11   ar
    13    11    12   ar
    14    12    13   ar
    15    13    14   ar
    16    14    16    1
    17    16    17   ar
    18    17    18   ar
    19    18    19   ar
    20    19    20   ar
    21    20    21   ar
    22    14    15   ar
    23     6     7    1
    24     7     8    2
    25     8     9    1
    26     9     1    1
    27     8     4    1
    28    15    10   ar
    29    21    16   ar
@<TRIPOS>MOLECULE
*****
 26 29 0 0 0
SMALL
GASTEIGER

@<TRIPOS>ATOM
      1 C          65.9445   93.5218   12.0826 C.2     1  UNL1        0.0919
      2 C          66.4892   93.9443   13.4148 C.2     1  UNL1        0.0183
      3 C          66.2860   93.0728   14.6187 C.2     1  UNL1        0.0511
      4 C          65.5381   91.7790   14.4904 C.2     1  UNL1        0.2322
      5 N          65.1842   90.7206   15.4927 N.2     1  UNL1       -0.0308
      6 C          64.4207   89.6440   14.7799 C.2     1  UNL1        0.3767
      7 N          64.3028   90.0370   13.3371 N.2     1  UNL1       -0.0346
      8 C          64.9934   91.3565   13.1582 C.2     1  UNL1        0.2191
      9 C          65.1966   92.2279   11.9543 C.3     1  UNL1        0.1226
     10 C          63.8716   88.3938   15.4009 C.ar    1  UNL1        0.1075
     11 C          63.2350   88.4477   16.7580 C.ar    1  UNL1        0.1065
     12 N          62.6859   87.1976   17.3791 N.ar    1  UNL1       -0.2421
     13 C          62.7734   85.8936   16.6430 C.ar    1  UNL1        0.0988
     14 C          63.4101   85.8397   15.2859 C.ar    1  UNL1        0.0194
     15 C          63.9592   87.0898   14.6649 C.ar    1  UNL1        0.0108
     16 C          63.4977   84.5356   14.5499 C.ar    1  UNL1        0.0015
     17 C          64.4649   84.3788   13.4142 C.ar    1  UNL1        0.0000
     18 C          64.5525   83.0748   12.6783 C.ar    1  UNL1        0.0000
     19 C          63.6727   81.9275   13.0779 C.ar    1  UNL1        0.0000
     20 C          62.7054   82.0842   14.2136 C.ar    1  UNL1        0.0000
     21 C          62.6179   83.3883   14.9495 C.ar    1  UNL1        0.0000
     22 S          66.1476   94.3932   10.8787 S.O2    1  UNL1        0.0054
     23 O          66.0951   95.6117   11.7519 O.2     1  UNL1       -0.1689
     24 O          66.2002   93.1747   10.0056 O.2     1  UNL1       -0.1689
     25 C          67.5847   95.1093    8.8361 C.3     1  UNL1        0.0276
     26 C          66.3508   95.2646    9.6748 C.3     1  UNL1        0.1556
@<TRIPOS>BOND
     1    25    26    1
     2    26    22    1
     3    22    23    2
     4    22    24    2
     5    22     1    1
     6     1     2    2
     7     2     3    1
     8     3     4    2
     9     4     5    1
    10     5     6    2
    11     6    10    1
    12    10    11   ar
    13    11    12   ar
    14    12    13   ar
    15    13    14   ar
    16    14    16    1
    17    16    17   ar
    18    17    18   ar
    19    18    19   ar
    20    19    20   ar
    21    20    21   ar
    22    14    15   ar
    23     6     7    1
    24     7     8    2
    25     8     9    1
    26     9     1    1
    27     8     4    1
    28    15    10   ar
    29    21    16   ar
@<TRIPOS>MOLECULE
*****
 26 29 0 0 0
SMALL
GASTEIGER

@<TRIPOS>ATOM
      1 C          61.0404   86.9803    8.7388 C.2     1  UNL1        0.0919
      2 C          60.1725   88.1959    8.6013 C.2     1  UNL1        0.0183
      3 C          60.2728   89.3064    9.6046 C.2     1  UNL1        0.0511
      4 C          61.2411   89.2014   10.7454 C.2     1  UNL1        0.2322
      5 N          61.5596   90.1291   11.8802 N.2     1  UNL1       -0.0308
      6 C          62.6245   89.4869   12.7190 C.2     1  UNL1        0.3767
      7 N          62.9640   88.1622   12.1027 N.2     1  UNL1       -0.0346
      8 C          62.1090   87.9858   10.8828 C.2     1  UNL1        0.2191
      9 C          62.0087   86.8752    9.8795 C.3     1  UNL1        0.1226
     10 C          63.2414   90.0674   13.9570 C.ar    1  UNL1        0.1075
     11 C          62.4915   90.0332   15.2556 C.ar    1  UNL1        0.1065
     12 N          63.1084   90.6137   16.4934 N.ar    1  UNL1       -0.2421
     13 C          64.4752   91.2285   16.4327 C.ar    1  UNL1        0.0988
     14 C          65.2252   91.2627   15.1341 C.ar    1  UNL1        0.0194
     15 C          64.6083   90.6822   13.8962 C.ar    1  UNL1        0.0108
     16 C          66.5921   91.8775   15.0734 C.ar    1  UNL1        0.0015
     17 C          67.4793   91.6182   13.8921 C.ar    1  UNL1        0.0000
     18 C          68.8462   92.2330   13.8315 C.ar    1  UNL1        0.0000
     19 C          69.3258   93.1070   14.9522 C.ar    1  UNL1        0.0000
     20 C          68.4386   93.3663   16.1335 C.ar    1  UNL1        0.0000
     21 C          67.0718   92.7515   16.1941 C.ar    1  UNL1        0.0000
     22 S          60.9401   85.8697    7.7355 S.O2    1  UNL1        0.0054
     23 O          62.3543   85.4703    8.0362 O.2     1  UNL1       -0.1689
     24 O          59.5259   86.2691    7.4348 O.2     1  UNL1       -0.1689
     25 C          62.0448   84.3586    5.9338 C.3     1  UNL1        0.0276
     26 C          60.8398   84.7591    6.7322 C.3     1  UNL1        0.1556
@<TRIPOS>BOND
     1    25    26    1
     2    26    22    1
     3    22    23    2
     4    22    24    2
     5    22     1    1
     6     1     2    2
     7     2     3    1
     8     3     4    2
     9     4     5    1
    10     5     6    2
    11     6    10    1
    12    10    11   ar
    13    11    12   ar
    14    12    13   ar
    15    13    14   ar
    16    14    16    1
    17    16    17   ar
    18    17    18   ar
    19    18    19   ar
    20    19    20   ar
    21    20    21   ar
    22    14    15   ar
    23     6     7    1
    24     7     8    2
    25     8     9    1
    26     9     1    1
    27     8     4    1
    28    15    10   ar
    29    21    16   ar
@<TRIPOS>MOLECULE
*****
 26 29 0 0 0
SMALL
GASTEIGER

@<TRIPOS>ATOM
      1 C          63.6840   94.6034    0.1696 C.2     1  UNL1        0.0919
      2 C          64.7198   93.6828    0.7436 C.2     1  UNL1        0.0183
      3 C          64.3419   92.7044    1.8159 C.2     1  UNL1        0.0511
      4 C          62.9283   92.6466    2.3143 C.2     1  UNL1        0.2322
      5 N          62.2647   91.7932    3.3541 N.2     1  UNL1       -0.0308
      6 C          60.8188   92.1864    3.4227 C.2     1  UNL1        0.3767
      7 N          60.5887   93.2828    2.4253 N.2     1  UNL1       -0.0346
      8 C          61.8926   93.5673    1.7402 C.2     1  UNL1        0.2191
      9 C          62.2704   94.5457    0.6679 C.3     1  UNL1        0.1226
     10 C          59.7845   91.5881    4.3296 C.ar    1  UNL1        0.1075
     11 C          58.3538   92.0272    4.2280 C.ar    1  UNL1        0.1065
     12 N          57.3195   91.4289    5.1348 N.ar    1  UNL1       -0.2421
     13 C          57.7159   90.3917    6.1432 C.ar    1  UNL1        0.0988
     14 C          59.1466   89.9527    6.2448 C.ar    1  UNL1        0.0194
     15 C          60.1809   90.5509    5.3380 C.ar    1  UNL1        0.0108
     16 C          59.5430   88.9154    7.2533 C.ar    1  UNL1        0.0015
     17 C          60.1897   89.3303    8.5415 C.ar    1  UNL1        0.0000
     18 C          60.5860   88.2930    9.5499 C.ar    1  UNL1        0.0000
     19 C          60.3357   86.8408    9.2701 C.ar    1  UNL1        0.0000
     20 C          59.6890   86.4258    7.9819 C.ar    1  UNL1        0.0000
     21 C          59.2927   87.4631    6.9735 C.ar    1  UNL1        0.0000
     22 S          64.0618   95.5818   -0.9028 S.O2    1  UNL1        0.0054
     23 O          62.6205   95.7031   -1.3000 O.2     1  UNL1       -0.1689
     24 O          65.5032   95.4606   -0.5056 O.2     1  UNL1       -0.1689
     25 C          65.1240   96.0806   -3.2207 C.3     1  UNL1        0.0276
     26 C          64.4396   96.5603   -1.9752 C.3     1  UNL1        0.1556
@<TRIPOS>BOND
     1    25    26    1
     2    26    22    1
     3    22    23    2
     4    22    24    2
     5    22     1    1
     6     1     2    2
     7     2     3    1
     8     3     4    2
     9     4     5    1
    10     5     6    2
    11     6    10    1
    12    10    11   ar
    13    11    12   ar
    14    12    13   ar
    15    13    14   ar
    16    14    16    1
    17    16    17   ar
    18    17    18   ar
    19    18    19   ar
    20    19    20   ar
    21    20    21   ar
    22    14    15   ar
    23     6     7    1
    24     7     8    2
    25     8     9    1
    26     9     1    1
    27     8     4    1
    28    15    10   ar
    29    21    16   ar
@<TRIPOS>MOLECULE
*****
 26 29 0 0 0
SMALL
GASTEIGER

@<TRIPOS>ATOM
      1 C          59.3966   89.4454    6.9637 C.2     1  UNL1        0.0919
      2 C          59.0147   87.9966    7.0347 C.2     1  UNL1        0.0183
      3 C          59.5587   87.1304    8.1319 C.2     1  UNL1        0.0511
      4 C          60.4846   87.7131    9.1582 C.2     1  UNL1        0.2322
      5 N          61.1737   87.1098   10.3461 N.2     1  UNL1       -0.0308
      6 C          61.9815   88.1858   11.0093 C.2     1  UNL1        0.3767
      7 N          61.7916   89.4541   10.2313 N.2     1  UNL1       -0.0346
      8 C          60.8664   89.1619    9.0872 C.2     1  UNL1        0.2191
      9 C          60.3224   90.0281    7.9900 C.3     1  UNL1        0.1226
     10 C          62.8302   88.0221   12.2353 C.ar    1  UNL1        0.1075
     11 C          63.1094   86.6513   12.7766 C.ar    1  UNL1        0.1065
     12 N          63.9580   86.4876   14.0025 N.ar    1  UNL1       -0.2421
     13 C          64.5274   87.6946   14.6872 C.ar    1  UNL1        0.0988
     14 C          64.2481   89.0654   14.1459 C.ar    1  UNL1        0.0194
     15 C          63.3995   89.2291   12.9199 C.ar    1  UNL1        0.0108
     16 C          64.8175   90.2725   14.8306 C.ar    1  UNL1        0.0015
     17 C          66.1502   90.8157   14.4078 C.ar    1  UNL1        0.0000
     18 C          66.7196   92.0227   15.0925 C.ar    1  UNL1        0.0000
     19 C          65.9562   92.6866   16.2001 C.ar    1  UNL1        0.0000
     20 C          64.6235   92.1434   16.6229 C.ar    1  UNL1        0.0000
     21 C          64.0542   90.9363   15.9381 C.ar    1  UNL1        0.0000
     22 S          58.8525   90.3115    5.8665 S.O2    1  UNL1        0.0054
     23 O          57.4547   89.9682    6.2886 O.2     1  UNL1       -0.1689
     24 O          60.2504   90.6548    5.4445 O.2     1  UNL1       -0.1689
     25 C          56.8631   91.5785    4.7771 C.3     1  UNL1        0.0276
     26 C          58.3085   91.1777    4.7693 C.3     1  UNL1        0.1556
@<TRIPOS>BOND
     1    25    26    1
     2    26    22    1
     3    22    23    2
     4    22    24    2
     5    22     1    1
     6     1     2    2
     7     2     3    1
     8     3     4    2
     9     4     5    1
    10     5     6    2
    11     6    10    1
    12    10    11   ar
    13    11    12   ar
    14    12    13   ar
    15    13    14   ar
    16    14    16    1
    17    16    17   ar
    18    17    18   ar
    19    18    19   ar
    20    19    20   ar
    21    20    21   ar
    22    14    15   ar
    23     6     7    1
    24     7     8    2
    25     8     9    1
    26     9     1    1
    27     8     4    1
    28    15    10   ar
    29    21    16   ar
@<TRIPOS>MOLECULE
*****
 26 29 0 0 0
SMALL
GASTEIGER

@<TRIPOS>ATOM
      1 C          46.4403   78.7608   18.9762 C.2     1  UNL1        0.0919
      2 C          47.7270   78.1510   19.4478 C.2     1  UNL1        0.0183
      3 C          47.9223   76.6654   19.3793 C.2     1  UNL1        0.0511
      4 C          46.8309   75.7895   18.8393 C.2     1  UNL1        0.2322
      5 N          46.7365   74.3044   18.6508 N.2     1  UNL1       -0.0308
      6 C          45.3914   73.9963   18.0628 C.2     1  UNL1        0.3767
      7 N          44.6545   75.2911   17.8878 N.2     1  UNL1       -0.0346
      8 C          45.5442   76.3993   18.3677 C.2     1  UNL1        0.2191
      9 C          45.3489   77.8850   18.4362 C.3     1  UNL1        0.1226
     10 C          44.8740   72.6329   17.7114 C.ar    1  UNL1        0.1075
     11 C          44.1506   71.8169   18.7414 C.ar    1  UNL1        0.1065
     12 N          43.6333   70.4535   18.3901 N.ar    1  UNL1       -0.2421
     13 C          43.8394   69.9061   17.0088 C.ar    1  UNL1        0.0988
     14 C          44.5628   70.7221   15.9789 C.ar    1  UNL1        0.0194
     15 C          45.0802   72.0855   16.3302 C.ar    1  UNL1        0.0108
     16 C          44.7689   70.1746   14.5976 C.ar    1  UNL1        0.0015
     17 C          46.0598   69.4973   14.2442 C.ar    1  UNL1        0.0000
     18 C          46.2658   68.9499   12.8630 C.ar    1  UNL1        0.0000
     19 C          45.1810   69.0797   11.8352 C.ar    1  UNL1        0.0000
     20 C          43.8902   69.7570   12.1886 C.ar    1  UNL1        0.0000
     21 C          43.6841   70.3044   13.5698 C.ar    1  UNL1        0.0000
     22 S          46.2449   80.2465   19.0447 S.O2    1  UNL1        0.0054
     23 O          44.7618   80.0467   19.1476 O.2     1  UNL1       -0.1689
     24 O          47.7280   80.4462   18.9418 O.2     1  UNL1       -0.1689
     25 C          44.7206   82.2958   19.5204 C.3     1  UNL1        0.0276
     26 C          46.0496   81.7321   19.1132 C.3     1  UNL1        0.1556
@<TRIPOS>BOND
     1    25    26    1
     2    26    22    1
     3    22    23    2
     4    22    24    2
     5    22     1    1
     6     1     2    2
     7     2     3    1
     8     3     4    2
     9     4     5    1
    10     5     6    2
    11     6    10    1
    12    10    11   ar
    13    11    12   ar
    14    12    13   ar
    15    13    14   ar
    16    14    16    1
    17    16    17   ar
    18    17    18   ar
    19    18    19   ar
    20    19    20   ar
    21    20    21   ar
    22    14    15   ar
    23     6     7    1
    24     7     8    2
    25     8     9    1
    26     9     1    1
    27     8     4    1
    28    15    10   ar
    29    21    16   ar
@<TRIPOS>MOLECULE
*****
 26 29 0 0 0
SMALL
GASTEIGER

@<TRIPOS>ATOM
      1 C          59.3056   89.7640    6.5662 C.2     1  UNL1        0.0919
      2 C          58.6041   88.4432    6.4505 C.2     1  UNL1        0.0183
      3 C          58.9284   87.3353    7.4083 C.2     1  UNL1        0.0511
      4 C          59.9541   87.5481    8.4818 C.2     1  UNL1        0.2322
      5 N          60.4787   86.6486    9.5614 N.2     1  UNL1       -0.0308
      6 C          61.5044   87.4134   10.3444 C.2     1  UNL1        0.3767
      7 N          61.6138   88.7856    9.7487 N.2     1  UNL1       -0.0346
      8 C          60.6556   88.8689    8.5975 C.2     1  UNL1        0.2191
      9 C          60.3314   89.9768    7.6397 C.3     1  UNL1        0.1226
     10 C          62.2838   86.8966   11.5172 C.ar    1  UNL1        0.1075
     11 C          63.0618   87.8471   12.3782 C.ar    1  UNL1        0.1065
     12 N          63.8412   87.3304   13.5510 N.ar    1  UNL1       -0.2421
     13 C          63.8427   85.8632   13.8628 C.ar    1  UNL1        0.0988
     14 C          63.0647   84.9127   13.0018 C.ar    1  UNL1        0.0194
     15 C          62.2853   85.4294   11.8290 C.ar    1  UNL1        0.0108
     16 C          63.0662   83.4454   13.3136 C.ar    1  UNL1        0.0015
     17 C          64.1574   82.5661   12.7788 C.ar    1  UNL1        0.0000
     18 C          64.1588   81.0989   13.0907 C.ar    1  UNL1        0.0000
     19 C          63.0691   80.5110   13.9373 C.ar    1  UNL1        0.0000
     20 C          61.9779   81.3903   14.4721 C.ar    1  UNL1        0.0000
     21 C          61.9765   82.8575   14.1603 C.ar    1  UNL1        0.0000
     22 S          58.9814   90.8719    5.6084 S.O2    1  UNL1        0.0054
     23 O          60.4375   91.0108    5.2762 O.2     1  UNL1       -0.1689
     24 O          57.5252   90.7329    5.9405 O.2     1  UNL1       -0.1689
     25 C          59.7335   92.5581    3.7806 C.3     1  UNL1        0.0276
     26 C          58.6571   91.9798    4.6505 C.3     1  UNL1        0.1556
@<TRIPOS>BOND
     1    25    26    1
     2    26    22    1
     3    22    23    2
     4    22    24    2
     5    22     1    1
     6     1     2    2
     7     2     3    1
     8     3     4    2
     9     4     5    1
    10     5     6    2
    11     6    10    1
    12    10    11   ar
    13    11    12   ar
    14    12    13   ar
    15    13    14   ar
    16    14    16    1
    17    16    17   ar
    18    17    18   ar
    19    18    19   ar
    20    19    20   ar
    21    20    21   ar
    22    14    15   ar
    23     6     7    1
    24     7     8    2
    25     8     9    1
    26     9     1    1
    27     8     4    1
    28    15    10   ar
    29    21    16   ar
@<TRIPOS>MOLECULE
*****
 26 29 0 0 0
SMALL
GASTEIGER

@<TRIPOS>ATOM
      1 C          72.5018   79.8936   11.1046 C.2     1  UNL1        0.0919
      2 C          72.9243   80.4291   12.4405 C.2     1  UNL1        0.0183
      3 C          72.9790   79.5178   13.6306 C.2     1  UNL1        0.0511
      4 C          72.6113   78.0709   13.4849 C.2     1  UNL1        0.2322
      5 N          72.5700   76.9415   14.4712 N.2     1  UNL1       -0.0308
      6 C          72.1219   75.7079   13.7448 C.2     1  UNL1        0.3767
      7 N          71.8863   76.0750   12.3096 N.2     1  UNL1       -0.0346
      8 C          72.1888   77.5354   12.1490 C.2     1  UNL1        0.2191
      9 C          72.1340   78.4467   10.9589 C.3     1  UNL1        0.1226
     10 C          71.9412   74.3464   14.3478 C.ar    1  UNL1        0.1075
     11 C          72.5058   74.0462   15.7047 C.ar    1  UNL1        0.1065
     12 N          72.3251   72.6847   16.3078 N.ar    1  UNL1       -0.2421
     13 C          71.5799   71.6234   15.5539 C.ar    1  UNL1        0.0988
     14 C          71.0153   71.9237   14.1970 C.ar    1  UNL1        0.0194
     15 C          71.1960   73.2851   13.5940 C.ar    1  UNL1        0.0108
     16 C          70.2701   70.8623   13.4432 C.ar    1  UNL1        0.0015
     17 C          69.3561   71.2441   12.3168 C.ar    1  UNL1        0.0000
     18 C          68.6109   70.1828   11.5630 C.ar    1  UNL1        0.0000
     19 C          68.7797   68.7397   11.9356 C.ar    1  UNL1        0.0000
     20 C          69.6938   68.3578   13.0619 C.ar    1  UNL1        0.0000
     21 C          70.4390   69.4192   13.8157 C.ar    1  UNL1        0.0000
     22 S          72.4470   80.8049    9.9145 S.O2    1  UNL1        0.0054
     23 O          72.7577   79.6468    9.0133 O.2     1  UNL1       -0.1689
     24 O          72.1362   81.9631   10.8156 O.2     1  UNL1       -0.1689
     25 C          72.1329   83.1816    8.9130 C.3     1  UNL1        0.0276
     26 C          72.3922   81.7163    8.7243 C.3     1  UNL1        0.1556
@<TRIPOS>BOND
     1    25    26    1
     2    26    22    1
     3    22    23    2
     4    22    24    2
     5    22     1    1
     6     1     2    2
     7     2     3    1
     8     3     4    2
     9     4     5    1
    10     5     6    2
    11     6    10    1
    12    10    11   ar
    13    11    12   ar
    14    12    13   ar
    15    13    14   ar
    16    14    16    1
    17    16    17   ar
    18    17    18   ar
    19    18    19   ar
    20    19    20   ar
    21    20    21   ar
    22    14    15   ar
    23     6     7    1
    24     7     8    2
    25     8     9    1
    26     9     1    1
    27     8     4    1
    28    15    10   ar
    29    21    16   ar
@<TRIPOS>MOLECULE
*****
 26 29 0 0 0
SMALL
GASTEIGER

@<TRIPOS>ATOM
      1 C          61.3095   86.4532    9.1749 C.2     1  UNL1        0.0919
      2 C          61.2355   85.7921   10.5193 C.2     1  UNL1        0.0183
      3 C          61.8300   86.4660   11.7203 C.2     1  UNL1        0.0511
      4 C          62.4984   87.8011   11.5770 C.2     1  UNL1        0.2322
      5 N          63.1689   88.7000   12.5731 N.2     1  UNL1       -0.0308
      6 C          63.6574   89.9168   11.8444 C.2     1  UNL1        0.3767
      7 N          63.2886   89.7699   10.3979 N.2     1  UNL1       -0.0346
      8 C          62.5723   88.4623   10.2326 C.2     1  UNL1        0.2191
      9 C          61.9779   87.7884    9.0316 C.3     1  UNL1        0.1226
     10 C          64.3865   91.0768   12.4551 C.ar    1  UNL1        0.1075
     11 C          64.5165   91.1801   13.9459 C.ar    1  UNL1        0.1065
     12 N          65.2456   92.3400   14.5566 N.ar    1  UNL1       -0.2421
     13 C          65.8447   93.3966   13.6765 C.ar    1  UNL1        0.0988
     14 C          65.7147   93.2933   12.1857 C.ar    1  UNL1        0.0194
     15 C          64.9856   92.1334   11.5750 C.ar    1  UNL1        0.0108
     16 C          66.3139   94.3499   11.3056 C.ar    1  UNL1        0.0015
     17 C          66.1556   95.7990   11.6594 C.ar    1  UNL1        0.0000
     18 C          66.7548   96.8556   10.7793 C.ar    1  UNL1        0.0000
     19 C          67.5122   96.4631    9.5455 C.ar    1  UNL1        0.0000
     20 C          67.6704   95.0141    9.1917 C.ar    1  UNL1        0.0000
     21 C          67.0713   93.9575   10.0718 C.ar    1  UNL1        0.0000
     22 S          60.7150   85.7793    7.9739 S.O2    1  UNL1        0.0054
     23 O          62.0842   85.3493    7.5375 O.2     1  UNL1       -0.1689
     24 O          59.3458   86.2093    8.4103 O.2     1  UNL1       -0.1689
     25 C          60.9463   84.1496    5.9638 C.3     1  UNL1        0.0276
     26 C          60.1206   85.1054    6.7729 C.3     1  UNL1        0.1556
@<TRIPOS>BOND
     1    25    26    1
     2    26    22    1
     3    22    23    2
     4    22    24    2
     5    22     1    1
     6     1     2    2
     7     2     3    1
     8     3     4    2
     9     4     5    1
    10     5     6    2
    11     6    10    1
    12    10    11   ar
    13    11    12   ar
    14    12    13   ar
    15    13    14   ar
    16    14    16    1
    17    16    17   ar
    18    17    18   ar
    19    18    19   ar
    20    19    20   ar
    21    20    21   ar
    22    14    15   ar
    23     6     7    1
    24     7     8    2
    25     8     9    1
    26     9     1    1
    27     8     4    1
    28    15    10   ar
    29    21    16   ar
