@<TRIPOS>MOLECULE
*****
 35 39 0 0 0
SMALL
GASTEIGER

@<TRIPOS>ATOM
      1 C          63.9800   88.3094   13.7884 C.ar    1  UNL1        0.1060
      2 C          64.4544   87.4336   14.9100 C.ar    1  UNL1        0.0196
      3 C          64.2021   85.9556   14.8656 C.ar    1  UNL1        0.0160
      4 C          63.4753   85.3535   13.6996 C.ar    1  UNL1        0.0523
      5 C          63.0010   86.2294   12.5781 C.ar    1  UNL1        0.0682
      6 C          63.2533   87.7073   12.6225 C.ar    1  UNL1        0.0241
      7 C          62.2743   85.6272   11.4122 C.2     1  UNL1        0.2508
      8 O          62.2061   84.1365   11.2596 O.2     1  UNL1       -0.2698
      9 N          61.6159   86.5157   10.3988 N.am    1  UNL1       -0.2661
     10 C          60.8575   86.0605    9.1873 C.3     1  UNL1        0.1236
     11 C          60.3731   87.2790    8.4587 C.ar    1  UNL1        0.0338
     12 C          59.6051   87.7507    7.2598 C.ar    1  UNL1        0.0991
     13 N          59.5893   89.2504    7.2800 N.ar    1  UNL1       -0.2271
     14 N          60.3476   89.7057    8.4915 N.ar    1  UNL1       -0.1680
     15 C          60.8321   88.4872    9.2201 C.ar    1  UNL1        0.0981
     16 C          61.6001   88.0155   10.4190 C.3     1  UNL1        0.1414
     17 C          58.9308   90.1389    6.2666 C.ar    1  UNL1        0.1042
     18 C          57.4372   90.1403    6.1282 C.ar    1  UNL1        0.1181
     19 N          56.7788   91.0289    5.1148 N.ar    1  UNL1       -0.2384
     20 C          57.6139   91.9160    4.2399 C.ar    1  UNL1        0.1285
     21 C          59.1075   91.9146    4.3783 C.ar    1  UNL1        0.1607
     22 F          59.9426   92.8018    3.5033 F       1  UNL1       -0.2025
     23 C          59.7660   91.0261    5.3917 C.ar    1  UNL1        0.0520
     24 N          63.2230   83.8756   13.6553 N.pl3   1  UNL1       -0.3070
     25 C          64.1982   82.9686   12.9651 C.3     1  UNL1        0.0964
     26 C          63.9459   81.4906   12.9207 C.3     1  UNL1        0.0880
     27 C          62.7184   80.9196   13.5666 C.3     1  UNL1        0.2672
     28 F          61.7077   79.9121   14.0285 F       1  UNL1       -0.2042
     29 F          63.3426   79.6628   13.0368 F       1  UNL1       -0.2042
     30 C          61.7432   81.8266   14.2568 C.3     1  UNL1        0.0880
     31 C          61.9955   83.3046   14.3012 C.3     1  UNL1        0.0964
     32 C          64.4846   91.2653   13.8771 C.3     1  UNL1        0.1816
     33 S          64.2323   89.7874   13.8328 S.O2    1  UNL1        0.0105
     34 O          64.6796   89.6682   15.2596 O.2     1  UNL1       -0.1686
     35 O          63.7850   89.9065   12.4060 O.2     1  UNL1       -0.1686
@<TRIPOS>BOND
     1    32    33    1
     2    33    34    2
     3    33    35    2
     4    33     1    1
     5     1     2   ar
     6     2     3   ar
     7     3     4   ar
     8     4    24    1
     9    24    25    1
    10    25    26    1
    11    26    27    1
    12    27    28    1
    13    27    29    1
    14    27    30    1
    15    30    31    1
    16     4     5   ar
    17     5     7    1
    18     7     8    2
    19     7     9   am
    20     9    10    1
    21    10    11    1
    22    11    12   ar
    23    12    13   ar
    24    13    17    1
    25    17    18   ar
    26    18    19   ar
    27    19    20   ar
    28    20    21   ar
    29    21    22    1
    30    21    23   ar
    31    13    14   ar
    32    14    15   ar
    33    15    16    1
    34     5     6   ar
    35     6     1   ar
    36    31    24    1
    37    16     9    1
    38    15    11   ar
    39    23    17   ar
@<TRIPOS>MOLECULE
*****
 35 39 0 0 0
SMALL
GASTEIGER

@<TRIPOS>ATOM
      1 C          60.2363   92.1271    3.9084 C.ar    1  UNL1        0.1060
      2 C          61.5602   91.4896    3.6072 C.ar    1  UNL1        0.0196
      3 C          62.5262   92.1681    2.6817 C.ar    1  UNL1        0.0160
      4 C          62.1681   93.4842    2.0574 C.ar    1  UNL1        0.0523
      5 C          60.8441   94.1218    2.3586 C.ar    1  UNL1        0.0682
      6 C          59.8782   93.4432    3.2841 C.ar    1  UNL1        0.0241
      7 C          60.4862   95.4379    1.7343 C.2     1  UNL1        0.2508
      8 O          61.1413   96.6988    2.2148 O.2     1  UNL1       -0.2698
      9 N          59.4731   95.4930    0.6295 N.am    1  UNL1       -0.2661
     10 C          59.0164   96.7291   -0.0870 C.3     1  UNL1        0.1236
     11 C          57.9998   96.3218   -1.1122 C.ar    1  UNL1        0.0338
     12 C          57.0893   96.8339   -2.1885 C.ar    1  UNL1        0.0991
     13 N          56.3551   95.6627   -2.7707 N.ar    1  UNL1       -0.2271
     14 N          56.8118   94.4265   -2.0541 N.ar    1  UNL1       -0.1680
     15 C          57.8284   94.8339   -1.0290 C.ar    1  UNL1        0.0981
     16 C          58.7388   94.3217    0.0474 C.3     1  UNL1        0.1414
     17 C          55.3420   95.7178   -3.8755 C.ar    1  UNL1        0.1042
     18 C          55.7202   95.2882   -5.2620 C.ar    1  UNL1        0.1181
     19 N          54.7071   95.3433   -6.3668 N.ar    1  UNL1       -0.2384
     20 C          53.3158   95.8281   -6.0851 C.ar    1  UNL1        0.1285
     21 C          52.9377   96.2578   -4.6986 C.ar    1  UNL1        0.1607
     22 F          51.5463   96.7426   -4.4170 F       1  UNL1       -0.2025
     23 C          53.9508   96.2026   -3.5938 C.ar    1  UNL1        0.0520
     24 N          63.1340   94.1628    1.1320 N.pl3   1  UNL1       -0.3070
     25 C          64.1522   95.1184    1.6797 C.3     1  UNL1        0.0964
     26 C          65.1182   95.7970    0.7542 C.3     1  UNL1        0.0880
     27 C          65.0660   95.5198   -0.7190 C.3     1  UNL1        0.2672
     28 F          65.4087   95.5822   -2.1780 F       1  UNL1       -0.2042
     29 F          66.2032   96.4972   -0.6779 F       1  UNL1       -0.2042
     30 C          64.0478   94.5642   -1.2668 C.3     1  UNL1        0.0880
     31 C          63.0818   93.8857   -0.3413 C.3     1  UNL1        0.0964
     32 C          58.3043   90.7700    5.7594 C.3     1  UNL1        0.1816
     33 S          59.2703   91.4486    4.8339 S.O2    1  UNL1        0.0105
     34 O          60.3850   90.6065    5.3800 O.2     1  UNL1       -0.1686
     35 O          58.1555   92.2907    4.2878 O.2     1  UNL1       -0.1686
@<TRIPOS>BOND
     1    32    33    1
     2    33    34    2
     3    33    35    2
     4    33     1    1
     5     1     2   ar
     6     2     3   ar
     7     3     4   ar
     8     4    24    1
     9    24    25    1
    10    25    26    1
    11    26    27    1
    12    27    28    1
    13    27    29    1
    14    27    30    1
    15    30    31    1
    16     4     5   ar
    17     5     7    1
    18     7     8    2
    19     7     9   am
    20     9    10    1
    21    10    11    1
    22    11    12   ar
    23    12    13   ar
    24    13    17    1
    25    17    18   ar
    26    18    19   ar
    27    19    20   ar
    28    20    21   ar
    29    21    22    1
    30    21    23   ar
    31    13    14   ar
    32    14    15   ar
    33    15    16    1
    34     5     6   ar
    35     6     1   ar
    36    31    24    1
    37    16     9    1
    38    15    11   ar
    39    23    17   ar
@<TRIPOS>MOLECULE
*****
 35 39 0 0 0
SMALL
GASTEIGER

@<TRIPOS>ATOM
      1 C          60.1986   91.8933    4.0650 C.ar    1  UNL1        0.1060
      2 C          61.5868   91.3578    3.8745 C.ar    1  UNL1        0.0196
      3 C          62.5343   92.0466    2.9376 C.ar    1  UNL1        0.0160
      4 C          62.0937   93.2710    2.1914 C.ar    1  UNL1        0.0523
      5 C          60.7056   93.8065    2.3819 C.ar    1  UNL1        0.0682
      6 C          59.7580   93.1177    3.3188 C.ar    1  UNL1        0.0241
      7 C          60.2651   95.0309    1.6357 C.2     1  UNL1        0.2508
      8 O          60.5611   96.3934    2.1888 O.2     1  UNL1       -0.2698
      9 N          59.5285   94.8927    0.3363 N.am    1  UNL1       -0.2661
     10 C          59.0281   96.0197   -0.5177 C.3     1  UNL1        0.1236
     11 C          58.3533   95.4267   -1.7191 C.ar    1  UNL1        0.0338
     12 C          57.6271   95.7568   -2.9893 C.ar    1  UNL1        0.0991
     13 N          57.2617   94.4672   -3.6628 N.ar    1  UNL1       -0.2271
     14 N          57.7621   93.3402   -2.8088 N.ar    1  UNL1       -0.1680
     15 C          58.4369   93.9332   -1.6074 C.ar    1  UNL1        0.0981
     16 C          59.1631   93.6031   -0.3372 C.3     1  UNL1        0.1414
     17 C          56.5252   94.3290   -4.9622 C.ar    1  UNL1        0.1042
     18 C          56.6974   93.0929   -5.7942 C.ar    1  UNL1        0.1181
     19 N          55.9609   92.9547   -7.0935 N.ar    1  UNL1       -0.2384
     20 C          55.0521   94.0527   -7.5609 C.ar    1  UNL1        0.1285
     21 C          54.8798   95.2888   -6.7290 C.ar    1  UNL1        0.1607
     22 F          53.9710   96.3868   -7.1965 F       1  UNL1       -0.2025
     23 C          55.6164   95.4270   -5.4296 C.ar    1  UNL1        0.0520
     24 N          63.0413   93.9598    1.2545 N.pl3   1  UNL1       -0.3070
     25 C          62.9874   93.6676   -0.2157 C.3     1  UNL1        0.0964
     26 C          63.9349   94.3564   -1.1525 C.3     1  UNL1        0.0880
     27 C          64.9365   95.3374   -0.6191 C.3     1  UNL1        0.2672
     28 F          66.0540   96.3376   -0.5932 F       1  UNL1       -0.2042
     29 F          65.2706   95.3925   -2.0804 F       1  UNL1       -0.2042
     30 C          64.9904   95.6296    0.8511 C.3     1  UNL1        0.0880
     31 C          64.0428   94.9408    1.7880 C.3     1  UNL1        0.0964
     32 C          58.3035   90.5157    5.9387 C.3     1  UNL1        0.1816
     33 S          59.2511   91.2045    5.0019 S.O2    1  UNL1        0.0105
     34 O          58.1136   92.0045    4.4395 O.2     1  UNL1       -0.1686
     35 O          60.3885   90.4046    5.5642 O.2     1  UNL1       -0.1686
@<TRIPOS>BOND
     1    32    33    1
     2    33    34    2
     3    33    35    2
     4    33     1    1
     5     1     2   ar
     6     2     3   ar
     7     3     4   ar
     8     4    24    1
     9    24    25    1
    10    25    26    1
    11    26    27    1
    12    27    28    1
    13    27    29    1
    14    27    30    1
    15    30    31    1
    16     4     5   ar
    17     5     7    1
    18     7     8    2
    19     7     9   am
    20     9    10    1
    21    10    11    1
    22    11    12   ar
    23    12    13   ar
    24    13    17    1
    25    17    18   ar
    26    18    19   ar
    27    19    20   ar
    28    20    21   ar
    29    21    22    1
    30    21    23   ar
    31    13    14   ar
    32    14    15   ar
    33    15    16    1
    34     5     6   ar
    35     6     1   ar
    36    31    24    1
    37    16     9    1
    38    15    11   ar
    39    23    17   ar
@<TRIPOS>MOLECULE
*****
 35 39 0 0 0
SMALL
GASTEIGER

@<TRIPOS>ATOM
      1 C          71.0963   71.2045   12.3618 C.ar    1  UNL1        0.1060
      2 C          71.5005   70.1087   13.3029 C.ar    1  UNL1        0.0196
      3 C          71.7426   70.4151   14.7512 C.ar    1  UNL1        0.0160
      4 C          71.5804   71.8175   15.2583 C.ar    1  UNL1        0.0523
      5 C          71.1762   72.9134   14.3172 C.ar    1  UNL1        0.0682
      6 C          70.9341   72.6068   12.8689 C.ar    1  UNL1        0.0241
      7 C          71.0140   74.3157   14.8243 C.2     1  UNL1        0.2508
      8 O          70.5391   74.5558   16.2267 O.2     1  UNL1       -0.2698
      9 N          71.3268   75.4778   13.9291 N.am    1  UNL1       -0.2661
     10 C          71.2131   76.9282   14.2947 C.3     1  UNL1        0.1236
     11 C          71.6243   77.7404   13.1025 C.ar    1  UNL1        0.0338
     12 C          71.8081   79.1387   12.5917 C.ar    1  UNL1        0.0991
     13 N          72.2895   79.0546   11.1736 N.ar    1  UNL1       -0.2271
     14 N          72.4033   77.6043   10.8079 N.ar    1  UNL1       -0.1680
     15 C          71.9921   76.7920   12.0001 C.ar    1  UNL1        0.0981
     16 C          71.8083   75.3937   12.5109 C.3     1  UNL1        0.1414
     17 C          72.6023   80.2167   10.2783 C.ar    1  UNL1        0.1042
     18 C          72.5574   81.6146   10.8206 C.ar    1  UNL1        0.1181
     19 N          72.8702   82.7768    9.9253 N.ar    1  UNL1       -0.2384
     20 C          73.2279   82.5411    8.4878 C.ar    1  UNL1        0.1285
     21 C          73.2729   81.1432    7.9456 C.ar    1  UNL1        0.1607
     22 F          73.6307   80.9077    6.5080 F       1  UNL1       -0.2025
     23 C          72.9601   79.9811    8.8408 C.ar    1  UNL1        0.0520
     24 N          71.8225   72.1240   16.7065 N.pl3   1  UNL1       -0.3070
     25 C          70.7206   71.9377   17.7070 C.3     1  UNL1        0.0964
     26 C          70.9627   72.2441   19.1553 C.3     1  UNL1        0.0880
     27 C          72.3067   72.7369   19.6031 C.3     1  UNL1        0.2672
     28 F          73.3999   73.2238   20.5075 F       1  UNL1       -0.2042
     29 F          71.5844   72.7197   20.9176 F       1  UNL1       -0.2042
     30 C          73.4087   72.9233   18.6027 C.3     1  UNL1        0.0880
     31 C          73.1666   72.6168   17.1544 C.3     1  UNL1        0.0964
     32 C          70.6121   70.5916    9.4653 C.3     1  UNL1        0.1816
     33 S          70.8542   70.8980   10.9135 S.O2    1  UNL1        0.0105
     34 O          72.3143   70.6067   10.7311 O.2     1  UNL1       -0.1686
     35 O          69.3941   71.1894   11.0960 O.2     1  UNL1       -0.1686
@<TRIPOS>BOND
     1    32    33    1
     2    33    34    2
     3    33    35    2
     4    33     1    1
     5     1     2   ar
     6     2     3   ar
     7     3     4   ar
     8     4    24    1
     9    24    25    1
    10    25    26    1
    11    26    27    1
    12    27    28    1
    13    27    29    1
    14    27    30    1
    15    30    31    1
    16     4     5   ar
    17     5     7    1
    18     7     8    2
    19     7     9   am
    20     9    10    1
    21    10    11    1
    22    11    12   ar
    23    12    13   ar
    24    13    17    1
    25    17    18   ar
    26    18    19   ar
    27    19    20   ar
    28    20    21   ar
    29    21    22    1
    30    21    23   ar
    31    13    14   ar
    32    14    15   ar
    33    15    16    1
    34     5     6   ar
    35     6     1   ar
    36    31    24    1
    37    16     9    1
    38    15    11   ar
    39    23    17   ar
@<TRIPOS>MOLECULE
*****
 35 39 0 0 0
SMALL
GASTEIGER

@<TRIPOS>ATOM
      1 C          62.3215   90.3714   10.6629 C.ar    1  UNL1        0.1060
      2 C          62.9934   91.6896   10.4164 C.ar    1  UNL1        0.0196
      3 C          64.1055   92.1442   11.3145 C.ar    1  UNL1        0.0160
      4 C          64.5457   91.2804   12.4592 C.ar    1  UNL1        0.0523
      5 C          63.8739   89.9621   12.7057 C.ar    1  UNL1        0.0682
      6 C          62.7617   89.5076   11.8075 C.ar    1  UNL1        0.0241
      7 C          64.3141   89.0984   13.8503 C.2     1  UNL1        0.2508
      8 O          65.1094   89.6920   14.9751 O.2     1  UNL1       -0.2698
      9 N          63.9591   87.6412   13.8701 N.am    1  UNL1       -0.2661
     10 C          64.3275   86.6585   14.9418 C.3     1  UNL1        0.1236
     11 C          63.7693   85.3207   14.5557 C.ar    1  UNL1        0.0338
     12 C          63.6521   83.8866   14.9794 C.ar    1  UNL1        0.0991
     13 N          62.8663   83.1563   13.9310 N.ar    1  UNL1       -0.2271
     14 N          62.4979   84.1391   12.8593 N.ar    1  UNL1       -0.1680
     15 C          63.0560   85.4768   13.2454 C.ar    1  UNL1        0.0981
     16 C          63.1733   86.9109   12.8217 C.3     1  UNL1        0.1414
     17 C          62.5112   81.6991   13.9508 C.ar    1  UNL1        0.1042
     18 C          63.5805   80.6640   13.7628 C.ar    1  UNL1        0.1181
     19 N          63.2254   79.2068   13.7826 N.ar    1  UNL1       -0.2384
     20 C          61.8011   78.7846   13.9905 C.ar    1  UNL1        0.1285
     21 C          60.7319   79.8197   14.1785 C.ar    1  UNL1        0.1607
     22 F          59.3076   79.3974   14.3864 F       1  UNL1       -0.2025
     23 C          61.0870   81.2769   14.1587 C.ar    1  UNL1        0.0520
     24 N          65.6578   91.7350   13.3572 N.pl3   1  UNL1       -0.3070
     25 C          65.3449   92.3049   14.7090 C.3     1  UNL1        0.0964
     26 C          66.4570   92.7595   15.6071 C.3     1  UNL1        0.0880
     27 C          67.8821   92.6441   15.1534 C.3     1  UNL1        0.2672
     28 F          69.3791   92.7380   15.1714 F       1  UNL1       -0.2042
     29 F          68.0890   93.2467   16.5115 F       1  UNL1       -0.2042
     30 C          68.1950   92.0742   13.8017 C.3     1  UNL1        0.0880
     31 C          67.0829   91.6196   12.9036 C.3     1  UNL1        0.0964
     32 C          60.0973   89.4622    8.8668 C.3     1  UNL1        0.1816
     33 S          61.2094   89.9168    9.7649 S.O2    1  UNL1        0.0105
     34 O          62.0810   88.8125    9.2444 O.2     1  UNL1       -0.1686
     35 O          60.3378   91.0211   10.2853 O.2     1  UNL1       -0.1686
@<TRIPOS>BOND
     1    32    33    1
     2    33    34    2
     3    33    35    2
     4    33     1    1
     5     1     2   ar
     6     2     3   ar
     7     3     4   ar
     8     4    24    1
     9    24    25    1
    10    25    26    1
    11    26    27    1
    12    27    28    1
    13    27    29    1
    14    27    30    1
    15    30    31    1
    16     4     5   ar
    17     5     7    1
    18     7     8    2
    19     7     9   am
    20     9    10    1
    21    10    11    1
    22    11    12   ar
    23    12    13   ar
    24    13    17    1
    25    17    18   ar
    26    18    19   ar
    27    19    20   ar
    28    20    21   ar
    29    21    22    1
    30    21    23   ar
    31    13    14   ar
    32    14    15   ar
    33    15    16    1
    34     5     6   ar
    35     6     1   ar
    36    31    24    1
    37    16     9    1
    38    15    11   ar
    39    23    17   ar
@<TRIPOS>MOLECULE
*****
 35 39 0 0 0
SMALL
GASTEIGER

@<TRIPOS>ATOM
      1 C          59.6311   88.9772    7.2769 C.ar    1  UNL1        0.1060
      2 C          60.3208   87.7580    6.7403 C.ar    1  UNL1        0.0196
      3 C          61.0140   86.8147    7.6782 C.ar    1  UNL1        0.0160
      4 C          61.0175   87.0907    9.1526 C.ar    1  UNL1        0.0523
      5 C          60.3278   88.3098    9.6892 C.ar    1  UNL1        0.0682
      6 C          59.6346   89.2531    8.7513 C.ar    1  UNL1        0.0241
      7 C          60.3313   88.5857   11.1636 C.2     1  UNL1        0.2508
      8 O          59.1503   88.1960   12.0023 O.2     1  UNL1       -0.2698
      9 N          61.5158   89.2511   11.7993 N.am    1  UNL1       -0.2661
     10 C          61.6621   89.5891   13.2533 C.3     1  UNL1        0.1236
     11 C          62.9988   90.2424   13.4452 C.ar    1  UNL1        0.0338
     12 C          63.9153   90.8550   14.4624 C.ar    1  UNL1        0.0991
     13 N          65.1615   91.2992   13.7555 N.ar    1  UNL1       -0.2271
     14 N          65.0152   90.9612   12.3014 N.ar    1  UNL1       -0.1680
     15 C          63.6785   90.3080   12.1096 C.ar    1  UNL1        0.0981
     16 C          62.7620   89.6954   11.0924 C.3     1  UNL1        0.1414
     17 C          66.3460   91.9647   14.3912 C.ar    1  UNL1        0.1042
     18 C          66.1687   92.7802   15.6375 C.ar    1  UNL1        0.1181
     19 N          67.3532   93.4457   16.2732 N.ar    1  UNL1       -0.2384
     20 C          68.7150   93.2956   15.6625 C.ar    1  UNL1        0.1285
     21 C          68.8923   92.4800   14.4161 C.ar    1  UNL1        0.1607
     22 F          70.2542   92.3300   13.8054 F       1  UNL1       -0.2025
     23 C          67.7078   91.8146   13.7804 C.ar    1  UNL1        0.0520
     24 N          61.7107   86.1473   10.0905 N.pl3   1  UNL1       -0.3070
     25 C          62.7200   85.1714    9.5624 C.3     1  UNL1        0.0964
     26 C          63.4133   84.2281   10.5002 C.3     1  UNL1        0.0880
     27 C          63.0972   84.2606   11.9662 C.3     1  UNL1        0.2672
     28 F          63.1364   83.9122   13.4247 F       1  UNL1       -0.2042
     29 F          64.1202   83.1637   11.9446 F       1  UNL1       -0.2042
     30 C          62.0879   85.2365   12.4943 C.3     1  UNL1        0.0880
     31 C          61.3946   86.1799   11.5564 C.3     1  UNL1        0.0964
     32 C          58.2446   90.8639    5.4012 C.3     1  UNL1        0.1816
     33 S          58.9378   89.9205    6.3390 S.O2    1  UNL1        0.0105
     34 O          60.2662   90.4676    5.9074 O.2     1  UNL1       -0.1686
     35 O          57.6095   89.3735    6.7706 O.2     1  UNL1       -0.1686
@<TRIPOS>BOND
     1    32    33    1
     2    33    34    2
     3    33    35    2
     4    33     1    1
     5     1     2   ar
     6     2     3   ar
     7     3     4   ar
     8     4    24    1
     9    24    25    1
    10    25    26    1
    11    26    27    1
    12    27    28    1
    13    27    29    1
    14    27    30    1
    15    30    31    1
    16     4     5   ar
    17     5     7    1
    18     7     8    2
    19     7     9   am
    20     9    10    1
    21    10    11    1
    22    11    12   ar
    23    12    13   ar
    24    13    17    1
    25    17    18   ar
    26    18    19   ar
    27    19    20   ar
    28    20    21   ar
    29    21    22    1
    30    21    23   ar
    31    13    14   ar
    32    14    15   ar
    33    15    16    1
    34     5     6   ar
    35     6     1   ar
    36    31    24    1
    37    16     9    1
    38    15    11   ar
    39    23    17   ar
