@<TRIPOS>MOLECULE
*****
 26 29 0 0 0
SMALL
GASTEIGER

@<TRIPOS>ATOM
      1 C          63.0465   83.4500   13.2798 C.ar    1  UNL1        0.1366
      2 C          63.8327   84.0959   14.3820 C.ar    1  UNL1        0.0353
      3 C          64.0555   85.5792   14.3745 C.ar    1  UNL1        0.0630
      4 CL         64.8417   86.2251   15.4768 Cl      1  UNL1       -0.0821
      5 C          63.4922   86.4167   13.2649 C.ar    1  UNL1        0.0564
      6 C          63.5481   87.8906   12.9921 C.ar    1  UNL1        0.0730
      7 CL         64.2351   88.9189   13.8410 Cl      1  UNL1       -0.0810
      8 C          62.7965   88.1557   11.7213 C.ar    1  UNL1        0.0486
      9 N          62.2761   86.8456   11.2087 N.ar    1  UNL1       -0.3160
     10 C          62.7060   85.7708   12.1628 C.ar    1  UNL1        0.1453
     11 N          62.4832   84.2875   12.1702 N.ar    1  UNL1       -0.2236
     12 C          61.4677   86.6454    9.9612 C.3     1  UNL1        0.1023
     13 C          62.0439   85.8765    8.8094 C.3     1  UNL1        0.0254
     14 C          61.2355   85.6763    7.5619 C.3     1  UNL1        0.0191
     15 C          59.8507   86.2450    7.4662 C.3     1  UNL1        0.0687
     16 N          59.2744   87.0139    8.6181 N.3     1  UNL1       -0.2959
     17 C          60.0829   87.2140    9.8655 C.3     1  UNL1        0.0914
     18 H          58.4194   86.5318    8.8955 H       1  UNL1        0.1233
     19 N          62.3655   81.2834   14.5415 N.am    1  UNL1       -0.3241
     20 C          62.8237   81.9667   13.2873 C.2     1  UNL1        0.2606
     21 O          63.0590   81.1666   12.0405 O.2     1  UNL1       -0.2687
     22 H          62.2193   80.3098   14.5464 H       1  UNL1        0.1453
     23 H          62.2110   81.8085   15.3598 H       1  UNL1        0.1453
     24 C          62.6000   89.4957   11.0764 C.3     1  UNL1        0.0392
     25 C          61.6922   90.5270   10.4743 C.3     1  UNL1        0.0063
     26 C          63.1672   90.7852   10.5613 C.3     1  UNL1        0.0063
@<TRIPOS>BOND
     1    19    20   am
     2    20    21    2
     3    20     1    1
     4     1     2   ar
     5     2     3   ar
     6     3     4    1
     7     3     5   ar
     8     5     6   ar
     9     6     7    1
    10     6     8   ar
    11     8    24    1
    12    24    25    1
    13    25    26    1
    14     8     9   ar
    15    12     9    1
    16    12    13    1
    17    13    14    1
    18    14    15    1
    19    15    16    1
    20    16    17    1
    21     9    10   ar
    22    10    11   ar
    23    11     1   ar
    24    10     5   ar
    25    26    24    1
    26    17    12    1
    27    19    22    1
    28    19    23    1
    29    16    18    1
@<TRIPOS>MOLECULE
*****
 26 29 0 0 0
SMALL
GASTEIGER

@<TRIPOS>ATOM
      1 C          60.7741   86.5738    8.9054 C.ar    1  UNL1        0.1366
      2 C          61.0519   88.0389    9.0674 C.ar    1  UNL1        0.0353
      3 C          61.8567   88.5249   10.2362 C.ar    1  UNL1        0.0630
      4 CL         62.1345   89.9901   10.3982 Cl      1  UNL1       -0.0821
      5 C          62.3836   87.5459   11.2430 C.ar    1  UNL1        0.0564
      6 C          63.2007   87.7278   12.4877 C.ar    1  UNL1        0.0730
      7 CL         63.7025   89.0333   13.0299 Cl      1  UNL1       -0.0810
      8 C          63.4278   86.3752   13.0950 C.ar    1  UNL1        0.0486
      9 N          62.7512   85.3572   12.2256 N.ar    1  UNL1       -0.3160
     10 C          62.1058   86.0808   11.0810 C.ar    1  UNL1        0.1453
     11 N          61.3010   85.5947    9.9122 N.ar    1  UNL1       -0.2236
     12 C          62.7245   83.8758   12.4597 C.3     1  UNL1        0.1023
     13 C          63.1093   82.9352   11.3565 C.3     1  UNL1        0.0254
     14 C          63.0826   81.4538   11.5907 C.3     1  UNL1        0.0191
     15 C          62.6711   80.9131   12.9280 C.3     1  UNL1        0.0687
     16 N          62.2864   81.8538   14.0312 N.3     1  UNL1       -0.2959
     17 C          62.3131   83.3352   13.7970 C.3     1  UNL1        0.0914
     18 H          62.9175   81.6675   14.8105 H       1  UNL1        0.1233
     19 N          58.5855   86.6186    7.5061 N.am    1  UNL1       -0.3241
     20 C          59.9693   86.0878    7.7366 C.2     1  UNL1        0.2606
     21 O          60.5484   85.0709    6.7982 O.2     1  UNL1       -0.2687
     22 H          58.0573   86.2996    6.7390 H       1  UNL1        0.1453
     23 H          58.2054   87.2860    8.1220 H       1  UNL1        0.1453
     24 C          64.1967   86.0905   14.3512 C.3     1  UNL1        0.0392
     25 C          65.4745   85.6968   15.0311 C.3     1  UNL1        0.0063
     26 C          64.2507   85.9912   15.8469 C.3     1  UNL1        0.0063
@<TRIPOS>BOND
     1    19    20   am
     2    20    21    2
     3    20     1    1
     4     1     2   ar
     5     2     3   ar
     6     3     4    1
     7     3     5   ar
     8     5     6   ar
     9     6     7    1
    10     6     8   ar
    11     8    24    1
    12    24    25    1
    13    25    26    1
    14     8     9   ar
    15    12     9    1
    16    12    13    1
    17    13    14    1
    18    14    15    1
    19    15    16    1
    20    16    17    1
    21     9    10   ar
    22    10    11   ar
    23    11     1   ar
    24    10     5   ar
    25    26    24    1
    26    17    12    1
    27    19    22    1
    28    19    23    1
    29    16    18    1
@<TRIPOS>MOLECULE
*****
 26 29 0 0 0
SMALL
GASTEIGER

@<TRIPOS>ATOM
      1 C          66.7431   92.6356   14.1451 C.ar    1  UNL1        0.1366
      2 C          66.5585   93.4191   12.8794 C.ar    1  UNL1        0.0353
      3 C          65.5552   92.9699   11.8588 C.ar    1  UNL1        0.0630
      4 CL         65.3706   93.7535   10.5931 Cl      1  UNL1       -0.0821
      5 C          64.7365   91.7372   12.1039 C.ar    1  UNL1        0.0564
      6 C          63.6791   91.0557   11.2870 C.ar    1  UNL1        0.0730
      7 CL         63.1784   91.5008    9.9449 Cl      1  UNL1       -0.0810
      8 C          63.2101   89.8510   12.0478 C.ar    1  UNL1        0.0486
      9 N          63.9777   89.7879   13.3349 N.ar    1  UNL1       -0.3160
     10 C          64.9211   90.9536   13.3696 C.ar    1  UNL1        0.1453
     11 N          65.9244   91.4028   14.3902 N.ar    1  UNL1       -0.2236
     12 C          63.8283   88.7426   14.4003 C.3     1  UNL1        0.1023
     13 C          64.2536   87.3299   14.1299 C.3     1  UNL1        0.0254
     14 C          64.1041   86.2847   15.1953 C.3     1  UNL1        0.0191
     15 C          63.5293   86.6522   16.5312 C.3     1  UNL1        0.0687
     16 N          63.1039   88.0650   16.8016 N.3     1  UNL1       -0.2959
     17 C          63.2534   89.1102   15.7362 C.3     1  UNL1        0.0914
     18 H          63.6424   88.3857   17.6063 H       1  UNL1        0.1233
     19 N          67.2898   93.5099   16.5297 N.am    1  UNL1       -0.3241
     20 C          67.7464   93.0848   15.1657 C.2     1  UNL1        0.2606
     21 O          69.2063   93.1088   14.8223 O.2     1  UNL1       -0.2687
     22 H          67.9483   93.8048   17.1996 H       1  UNL1        0.1453
     23 H          66.3316   93.4942   16.7552 H       1  UNL1        0.1453
     24 C          62.1581   88.8799   11.6000 C.3     1  UNL1        0.0392
     25 C          60.7265   88.5755   11.2716 C.3     1  UNL1        0.0063
     26 C          61.7678   87.5024   11.1529 C.3     1  UNL1        0.0063
@<TRIPOS>BOND
     1    19    20   am
     2    20    21    2
     3    20     1    1
     4     1     2   ar
     5     2     3   ar
     6     3     4    1
     7     3     5   ar
     8     5     6   ar
     9     6     7    1
    10     6     8   ar
    11     8    24    1
    12    24    25    1
    13    25    26    1
    14     8     9   ar
    15    12     9    1
    16    12    13    1
    17    13    14    1
    18    14    15    1
    19    15    16    1
    20    16    17    1
    21     9    10   ar
    22    10    11   ar
    23    11     1   ar
    24    10     5   ar
    25    26    24    1
    26    17    12    1
    27    19    22    1
    28    19    23    1
    29    16    18    1
@<TRIPOS>MOLECULE
*****
 26 29 0 0 0
SMALL
GASTEIGER

@<TRIPOS>ATOM
      1 C          63.5682   88.8647   13.3644 C.ar    1  UNL1        0.1366
      2 C          64.1270   88.2918   14.6330 C.ar    1  UNL1        0.0353
      3 C          64.2551   86.8058   14.7923 C.ar    1  UNL1        0.0630
      4 CL         64.8139   86.2329   16.0610 Cl      1  UNL1       -0.0821
      5 C          63.8244   85.8927   13.6830 C.ar    1  UNL1        0.0564
      6 C          63.8308   84.3983   13.5533 C.ar    1  UNL1        0.0730
      7 CL         64.3083   83.4254   14.5904 Cl      1  UNL1       -0.0810
      8 C          63.2760   84.0476   12.2045 C.ar    1  UNL1        0.0486
      9 N          62.9266   85.3252   11.5005 N.ar    1  UNL1       -0.3160
     10 C          63.2655   86.4656   12.4143 C.ar    1  UNL1        0.1453
     11 N          63.1375   87.9516   12.2550 N.ar    1  UNL1       -0.2236
     12 C          62.3412   85.4421   10.1245 C.3     1  UNL1        0.1023
     13 C          63.1197   84.9635    8.9350 C.3     1  UNL1        0.0254
     14 C          62.5342   85.0804    7.5590 C.3     1  UNL1        0.0191
     15 C          61.1702   85.6759    7.3724 C.3     1  UNL1        0.0687
     16 N          60.3916   86.1545    8.5619 N.3     1  UNL1       -0.2959
     17 C          60.9772   86.0376    9.9379 C.3     1  UNL1        0.0914
     18 H          59.5152   85.6327    8.5695 H       1  UNL1        0.1233
     19 N          62.6820   90.9177   12.0416 N.am    1  UNL1       -0.3241
     20 C          63.4401   90.3507   13.2051 C.2     1  UNL1        0.2606
     21 O          64.0701   91.2697   14.2092 O.2     1  UNL1       -0.2687
     22 H          62.5979   91.8930   11.9370 H       1  UNL1        0.1453
     23 H          62.2685   90.3145   11.3825 H       1  UNL1        0.1453
     24 C          63.1013   82.6624   11.6560 C.3     1  UNL1        0.0392
     25 C          62.6659   81.2386   11.8378 C.3     1  UNL1        0.0063
     26 C          63.2341   81.6872   10.5241 C.3     1  UNL1        0.0063
@<TRIPOS>BOND
     1    19    20   am
     2    20    21    2
     3    20     1    1
     4     1     2   ar
     5     2     3   ar
     6     3     4    1
     7     3     5   ar
     8     5     6   ar
     9     6     7    1
    10     6     8   ar
    11     8    24    1
    12    24    25    1
    13    25    26    1
    14     8     9   ar
    15    12     9    1
    16    12    13    1
    17    13    14    1
    18    14    15    1
    19    15    16    1
    20    16    17    1
    21     9    10   ar
    22    10    11   ar
    23    11     1   ar
    24    10     5   ar
    25    26    24    1
    26    17    12    1
    27    19    22    1
    28    19    23    1
    29    16    18    1
@<TRIPOS>MOLECULE
*****
 26 29 0 0 0
SMALL
GASTEIGER

@<TRIPOS>ATOM
      1 C          62.8867   83.2359   12.9966 C.ar    1  UNL1        0.1366
      2 C          63.6928   83.7858   14.1358 C.ar    1  UNL1        0.0353
      3 C          63.9636   85.2587   14.2208 C.ar    1  UNL1        0.0630
      4 CL         64.7698   85.8085   15.3601 Cl      1  UNL1       -0.0821
      5 C          63.4284   86.1817   13.1665 C.ar    1  UNL1        0.0564
      6 C          63.5323   87.6672   12.9863 C.ar    1  UNL1        0.0730
      7 CL         64.2518   88.6176   13.8969 Cl      1  UNL1       -0.0810
      8 C          62.7904   88.0355   11.7357 C.ar    1  UNL1        0.0486
      9 N          62.2280   86.7776   11.1430 N.ar    1  UNL1       -0.3160
     10 C          62.6223   85.6319   12.0273 C.ar    1  UNL1        0.1453
     11 N          62.3515   84.1590   11.9424 N.ar    1  UNL1       -0.2236
     12 C          61.4141   86.6820    9.8866 C.3     1  UNL1        0.1023
     13 C          60.0998   87.3981    9.7881 C.3     1  UNL1        0.0254
     14 C          59.2860   87.3026    8.5317 C.3     1  UNL1        0.0191
     15 C          59.7866   86.4909    7.3738 C.3     1  UNL1        0.0687
     16 N          61.1009   85.7749    7.4723 N.3     1  UNL1       -0.2959
     17 C          61.9147   85.8704    8.7287 C.3     1  UNL1        0.0914
     18 H          61.6860   86.1278    6.7150 H       1  UNL1        0.1233
     19 N          62.9547   81.0091   11.6599 N.am    1  UNL1       -0.3241
     20 C          62.6159   81.7630   12.9116 C.2     1  UNL1        0.2606
     21 O          62.0063   81.0440   14.0784 O.2     1  UNL1       -0.2687
     22 H          62.7769   80.0424   11.6042 H       1  UNL1        0.1453
     23 H          63.3548   81.4810   10.8941 H       1  UNL1        0.1453
     24 C          62.6377   89.4188   11.1761 C.3     1  UNL1        0.0392
     25 C          62.5043   90.8980   11.3867 C.3     1  UNL1        0.0063
     26 C          62.5067   90.3356    9.9962 C.3     1  UNL1        0.0063
@<TRIPOS>BOND
     1    19    20   am
     2    20    21    2
     3    20     1    1
     4     1     2   ar
     5     2     3   ar
     6     3     4    1
     7     3     5   ar
     8     5     6   ar
     9     6     7    1
    10     6     8   ar
    11     8    24    1
    12    24    25    1
    13    25    26    1
    14     8     9   ar
    15    12     9    1
    16    12    13    1
    17    13    14    1
    18    14    15    1
    19    15    16    1
    20    16    17    1
    21     9    10   ar
    22    10    11   ar
    23    11     1   ar
    24    10     5   ar
    25    26    24    1
    26    17    12    1
    27    19    22    1
    28    19    23    1
    29    16    18    1
@<TRIPOS>MOLECULE
*****
 26 29 0 0 0
SMALL
GASTEIGER

@<TRIPOS>ATOM
      1 C          63.3759   89.0379   13.3768 C.ar    1  UNL1        0.1366
      2 C          62.7244   90.2329   12.7465 C.ar    1  UNL1        0.0353
      3 C          61.9987   90.0903   11.4415 C.ar    1  UNL1        0.0630
      4 CL         61.3471   91.2854   10.8111 Cl      1  UNL1       -0.0821
      5 C          61.9245   88.7527   10.7668 C.ar    1  UNL1        0.0564
      6 C          61.2840   88.3091    9.4851 C.ar    1  UNL1        0.0730
      7 CL         60.5216   89.1816    8.5324 Cl      1  UNL1       -0.0810
      8 C          61.5397   86.8400    9.3232 C.ar    1  UNL1        0.0486
      9 N          62.3382   86.3755   10.5050 N.ar    1  UNL1       -0.3160
     10 C          62.5760   87.5577   11.3972 C.ar    1  UNL1        0.1453
     11 N          63.3017   87.7003   12.7022 N.ar    1  UNL1       -0.2236
     12 C          62.8151   84.9749   10.7513 C.3     1  UNL1        0.1023
     13 C          63.6543   84.2765    9.7227 C.3     1  UNL1        0.0254
     14 C          64.1312   82.8759    9.9691 C.3     1  UNL1        0.0191
     15 C          63.7690   82.1736   11.2441 C.3     1  UNL1        0.0687
     16 N          62.9299   82.8720   12.2727 N.3     1  UNL1       -0.2959
     17 C          62.4529   84.2726   12.0263 C.3     1  UNL1        0.0914
     18 H          63.4770   82.8943   13.1333 H       1  UNL1        0.1233
     19 N          63.6146   88.4451   15.8951 N.am    1  UNL1       -0.3241
     20 C          64.1016   89.1805   14.6818 C.2     1  UNL1        0.2606
     21 O          65.3142   90.0586   14.7736 O.2     1  UNL1       -0.2687
     22 H          64.0909   88.5387   16.7516 H       1  UNL1        0.1453
     23 H          62.8187   87.8688   15.8348 H       1  UNL1        0.1453
     24 C          61.0778   85.9853    8.1802 C.3     1  UNL1        0.0392
     25 C          59.9819   85.5124    7.2718 C.3     1  UNL1        0.0063
     26 C          61.3739   84.9780    7.1089 C.3     1  UNL1        0.0063
@<TRIPOS>BOND
     1    19    20   am
     2    20    21    2
     3    20     1    1
     4     1     2   ar
     5     2     3   ar
     6     3     4    1
     7     3     5   ar
     8     5     6   ar
     9     6     7    1
    10     6     8   ar
    11     8    24    1
    12    24    25    1
    13    25    26    1
    14     8     9   ar
    15    12     9    1
    16    12    13    1
    17    13    14    1
    18    14    15    1
    19    15    16    1
    20    16    17    1
    21     9    10   ar
    22    10    11   ar
    23    11     1   ar
    24    10     5   ar
    25    26    24    1
    26    17    12    1
    27    19    22    1
    28    19    23    1
    29    16    18    1
@<TRIPOS>MOLECULE
*****
 26 29 0 0 0
SMALL
GASTEIGER

@<TRIPOS>ATOM
      1 C          63.0990   84.9088   15.0347 C.ar    1  UNL1        0.1366
      2 C          63.6401   83.5319   14.7872 C.ar    1  UNL1        0.0353
      3 C          63.7450   83.0080   13.3856 C.ar    1  UNL1        0.0630
      4 CL         64.2862   81.6310   13.1381 Cl      1  UNL1       -0.0821
      5 C          63.3088   83.8610   12.2314 C.ar    1  UNL1        0.0564
      6 C          63.2940   83.6163   10.7516 C.ar    1  UNL1        0.0730
      7 CL         63.7495   82.3655   10.0603 Cl      1  UNL1       -0.0810
      8 C          62.7438   84.8420   10.0845 C.ar    1  UNL1        0.0486
      9 N          62.4184   85.8442   11.1520 N.ar    1  UNL1       -0.3160
     10 C          62.7676   85.2379   12.4789 C.ar    1  UNL1        0.1453
     11 N          62.6628   85.7618   13.8806 N.ar    1  UNL1       -0.2236
     12 C          61.8447   87.2125   10.9315 C.3     1  UNL1        0.1023
     13 C          62.6688   88.4289   11.2334 C.3     1  UNL1        0.0254
     14 C          62.0949   89.7971   11.0128 C.3     1  UNL1        0.0191
     15 C          60.6971   89.9489   10.4904 C.3     1  UNL1        0.0687
     16 N          59.8730   88.7324   10.1885 N.3     1  UNL1       -0.2959
     17 C          60.4468   87.3643   10.4091 C.3     1  UNL1        0.0914
     18 H          59.6154   88.7884    9.2031 H       1  UNL1        0.1233
     19 N          64.2325   85.6192   17.2619 N.am    1  UNL1       -0.3241
     20 C          62.9941   85.4327   16.4363 C.2     1  UNL1        0.2606
     21 O          61.6509   85.7701   17.0123 O.2     1  UNL1       -0.2687
     22 H          64.1637   85.9631   18.1818 H       1  UNL1        0.1453
     23 H          65.1141   85.3978   16.8838 H       1  UNL1        0.1453
     24 C          62.5524   85.0320    8.6089 C.3     1  UNL1        0.0392
     25 C          61.7401   85.5536    7.4608 C.3     1  UNL1        0.0063
     26 C          63.0334   84.8395    7.2012 C.3     1  UNL1        0.0063
@<TRIPOS>BOND
     1    19    20   am
     2    20    21    2
     3    20     1    1
     4     1     2   ar
     5     2     3   ar
     6     3     4    1
     7     3     5   ar
     8     5     6   ar
     9     6     7    1
    10     6     8   ar
    11     8    24    1
    12    24    25    1
    13    25    26    1
    14     8     9   ar
    15    12     9    1
    16    12    13    1
    17    13    14    1
    18    14    15    1
    19    15    16    1
    20    16    17    1
    21     9    10   ar
    22    10    11   ar
    23    11     1   ar
    24    10     5   ar
    25    26    24    1
    26    17    12    1
    27    19    22    1
    28    19    23    1
    29    16    18    1
@<TRIPOS>MOLECULE
*****
 26 29 0 0 0
SMALL
GASTEIGER

@<TRIPOS>ATOM
      1 C          62.6410   90.1674   11.5985 C.ar    1  UNL1        0.1366
      2 C          62.2230   89.7597   12.9802 C.ar    1  UNL1        0.0353
      3 C          63.0470   90.1698   14.1646 C.ar    1  UNL1        0.0630
      4 CL         62.6290   89.7620   15.5464 Cl      1  UNL1       -0.0821
      5 C          64.2888   90.9877   13.9674 C.ar    1  UNL1        0.0564
      6 C          65.2939   91.5360   14.9364 C.ar    1  UNL1        0.0730
      7 CL         65.2650   91.3672   16.4266 Cl      1  UNL1       -0.0810
      8 C          66.3331   92.2826   14.1537 C.ar    1  UNL1        0.0486
      9 N          65.9702   92.1957   12.7008 N.ar    1  UNL1       -0.3160
     10 C          64.7067   91.3954   12.5858 C.ar    1  UNL1        0.1453
     11 N          63.8828   90.9853   11.4013 N.ar    1  UNL1       -0.2236
     12 C          66.7362   92.8026   11.5629 C.3     1  UNL1        0.1023
     13 C          67.6886   91.9608   10.7665 C.3     1  UNL1        0.0254
     14 C          68.4546   92.5677    9.6285 C.3     1  UNL1        0.0191
     15 C          68.2681   94.0164    9.2870 C.3     1  UNL1        0.0687
     16 N          67.3157   94.8582   10.0835 N.3     1  UNL1       -0.2959
     17 C          66.5498   94.2512   11.2214 C.3     1  UNL1        0.0914
     18 H          66.6265   95.2244    9.4268 H       1  UNL1        0.1233
     19 N          60.6306   90.5789   10.0050 N.am    1  UNL1       -0.3241
     20 C          61.8170   89.7573   10.4140 C.2     1  UNL1        0.2606
     21 O          62.1795   88.5255    9.6386 O.2     1  UNL1       -0.2687
     22 H          60.0899   90.3097    9.2276 H       1  UNL1        0.1453
     23 H          60.3927   91.3874   10.5139 H       1  UNL1        0.1453
     24 C          67.5258   92.9916   14.7237 C.3     1  UNL1        0.0392
     25 C          68.1192   94.1757   15.4278 C.3     1  UNL1        0.0063
     26 C          68.9981   93.0354   15.0069 C.3     1  UNL1        0.0063
@<TRIPOS>BOND
     1    19    20   am
     2    20    21    2
     3    20     1    1
     4     1     2   ar
     5     2     3   ar
     6     3     4    1
     7     3     5   ar
     8     5     6   ar
     9     6     7    1
    10     6     8   ar
    11     8    24    1
    12    24    25    1
    13    25    26    1
    14     8     9   ar
    15    12     9    1
    16    12    13    1
    17    13    14    1
    18    14    15    1
    19    15    16    1
    20    16    17    1
    21     9    10   ar
    22    10    11   ar
    23    11     1   ar
    24    10     5   ar
    25    26    24    1
    26    17    12    1
    27    19    22    1
    28    19    23    1
    29    16    18    1
@<TRIPOS>MOLECULE
*****
 26 29 0 0 0
SMALL
GASTEIGER

@<TRIPOS>ATOM
      1 C          60.4279   92.3697    3.0699 C.ar    1  UNL1        0.1366
      2 C          61.9222   92.3568    2.9405 C.ar    1  UNL1        0.0353
      3 C          62.5653   92.7267    1.6368 C.ar    1  UNL1        0.0630
      4 CL         64.0598   92.7138    1.5074 Cl      1  UNL1       -0.0821
      5 C          61.7142   93.1095    0.4625 C.ar    1  UNL1        0.0564
      6 C          62.0616   93.5188   -0.9381 C.ar    1  UNL1        0.0730
      7 CL         63.4457   93.6408   -1.5032 Cl      1  UNL1       -0.0810
      8 C          60.7820   93.7846   -1.6743 C.ar    1  UNL1        0.0486
      9 N          59.6437   93.5396   -0.7287 N.ar    1  UNL1       -0.3160
     10 C          60.2198   93.1224    0.5920 C.ar    1  UNL1        0.1453
     11 N          59.5767   92.7525    1.8957 N.ar    1  UNL1       -0.2236
     12 C          58.1854   93.6862   -1.0477 C.3     1  UNL1        0.1023
     13 C          57.5833   95.0522   -1.1942 C.3     1  UNL1        0.0254
     14 C          56.1249   95.1986   -1.5132 C.3     1  UNL1        0.0191
     15 C          55.2687   93.9792   -1.6856 C.3     1  UNL1        0.0687
     16 N          55.8708   92.6131   -1.5391 N.3     1  UNL1       -0.2959
     17 C          57.3292   92.4667   -1.2201 C.3     1  UNL1        0.0914
     18 H          55.7118   92.1251   -2.4205 H       1  UNL1        0.1233
     19 N          58.5827   92.7551    4.8578 N.am    1  UNL1       -0.3241
     20 C          59.7848   91.9999    4.3736 C.2     1  UNL1        0.2606
     21 O          60.3438   90.8748    5.1931 O.2     1  UNL1       -0.2687
     22 H          58.1606   92.5124    5.7134 H       1  UNL1        0.1453
     23 H          58.2158   93.4936    4.3199 H       1  UNL1        0.1453
     24 C          60.6619   94.2192   -3.1050 C.3     1  UNL1        0.0392
     25 C          59.8113   94.6150   -4.2754 C.3     1  UNL1        0.0063
     26 C          61.3045   94.5760   -4.4125 C.3     1  UNL1        0.0063
@<TRIPOS>BOND
     1    19    20   am
     2    20    21    2
     3    20     1    1
     4     1     2   ar
     5     2     3   ar
     6     3     4    1
     7     3     5   ar
     8     5     6   ar
     9     6     7    1
    10     6     8   ar
    11     8    24    1
    12    24    25    1
    13    25    26    1
    14     8     9   ar
    15    12     9    1
    16    12    13    1
    17    13    14    1
    18    14    15    1
    19    15    16    1
    20    16    17    1
    21     9    10   ar
    22    10    11   ar
    23    11     1   ar
    24    10     5   ar
    25    26    24    1
    26    17    12    1
    27    19    22    1
    28    19    23    1
    29    16    18    1
