@<TRIPOS>MOLECULE
*****
 34 37 0 0 0
SMALL
GASTEIGER

@<TRIPOS>ATOM
      1 C          65.7184   91.9100   13.0550 C.ar    1  UNL1        0.0951
      2 C          65.8893   91.0042   14.2384 C.ar    1  UNL1        0.1454
      3 F          67.1522   91.0557   15.0461 F       1  UNL1       -0.2040
      4 C          64.7972   90.0470   14.6140 C.ar    1  UNL1        0.0312
      5 C          63.5343   89.9956   13.8063 C.ar    1  UNL1        0.0204
      6 C          63.3634   90.9013   12.6229 C.ar    1  UNL1        0.0924
      7 C          64.4555   91.8585   12.2472 C.ar    1  UNL1        0.1598
      8 F          64.2847   92.7643   11.0638 F       1  UNL1       -0.2026
      9 O          67.4579   93.7170   13.7321 O.2     1  UNL1       -0.2864
     10 C          66.8105   92.8672   12.6793 C.2     1  UNL1        0.2016
     11 C          67.2551   92.9746   11.2507 C.ar    1  UNL1        0.0620
     12 C          67.9155   91.8923   10.4491 C.ar    1  UNL1        0.1038
     13 N          68.1859   92.4320    9.0759 N.ar    1  UNL1       -0.2268
     14 C          67.6926   93.8478    9.0288 C.ar    1  UNL1        0.1415
     15 N          67.6930   94.8749    7.9357 N.ar    1  UNL1       -0.3374
     16 C          67.1181   96.2374    8.1867 C.ar    1  UNL1        0.0744
     17 C          66.5428   96.5727    9.5308 C.ar    1  UNL1        0.0300
     18 C          66.5425   95.5456   10.6239 C.ar    1  UNL1        0.0622
     19 CL         65.9672   95.8810   11.9680 Cl      1  UNL1       -0.0821
     20 C          67.1174   94.1831   10.3729 C.ar    1  UNL1        0.0491
     21 H          68.0705   94.6548    7.0535 H       1  UNL1        0.1674
     22 N          62.1005   90.8499   11.8152 N.pl3   1  UNL1       -0.2127
     23 H          61.4952   91.6261   11.7980 H       1  UNL1        0.1738
     24 S          61.7599   89.6158   11.0335 S.O2    1  UNL1        0.0780
     25 O          60.6702   89.2959   12.0134 O.2     1  UNL1       -0.1498
     26 O          62.8497   89.9356   10.0537 O.2     1  UNL1       -0.1498
     27 C          61.4194   88.3817   10.2518 C.ar    1  UNL1        0.1797
     28 C          62.0128   87.0600   10.6407 C.ar    1  UNL1        0.1611
     29 F          62.9466   86.9726   11.8114 F       1  UNL1       -0.2027
     30 C          61.6723   85.8259    9.8591 C.ar    1  UNL1        0.0312
     31 C          60.7385   85.9134    8.6885 C.ar    1  UNL1        0.0047
     32 C          60.1452   87.2350    8.2996 C.ar    1  UNL1        0.0312
     33 C          60.4856   88.4692    9.0812 C.ar    1  UNL1        0.1611
     34 F          59.8923   89.7908    8.6923 F       1  UNL1       -0.2027
@<TRIPOS>BOND
     1     9    10    2
     2    10     1    1
     3     1     2   ar
     4     2     3    1
     5     2     4   ar
     6     4     5   ar
     7     5     6   ar
     8     6    22    1
     9    22    24    1
    10    24    25    2
    11    24    26    2
    12    24    27    1
    13    27    28   ar
    14    28    29    1
    15    28    30   ar
    16    30    31   ar
    17    31    32   ar
    18    32    33   ar
    19    33    34    1
    20     6     7   ar
    21     7     8    1
    22    10    11    1
    23    11    12   ar
    24    12    13   ar
    25    13    14   ar
    26    14    15   ar
    27    15    16   ar
    28    16    17   ar
    29    17    18   ar
    30    18    19    1
    31    18    20   ar
    32     7     1   ar
    33    20    11   ar
    34    33    27   ar
    35    20    14    1
    36    22    23    1
    37    15    21    1
@<TRIPOS>MOLECULE
*****
 34 37 0 0 0
SMALL
GASTEIGER

@<TRIPOS>ATOM
      1 C          65.7264   91.7571   13.0317 C.ar    1  UNL1        0.0951
      2 C          65.8072   91.0162   14.3335 C.ar    1  UNL1        0.1454
      3 F          67.0593   91.0813   15.1570 F       1  UNL1       -0.2040
      4 C          64.6360   90.2104   14.8117 C.ar    1  UNL1        0.0312
      5 C          63.3839   90.1453   13.9882 C.ar    1  UNL1        0.0204
      6 C          63.3031   90.8862   12.6864 C.ar    1  UNL1        0.0924
      7 C          64.4743   91.6920   12.2082 C.ar    1  UNL1        0.1598
      8 F          64.3936   92.4329   10.9064 F       1  UNL1       -0.2026
      9 O          68.2694   91.9564   12.5387 O.2     1  UNL1       -0.2864
     10 C          66.8977   92.5630   12.5534 C.2     1  UNL1        0.2016
     11 C          66.6971   93.9754   12.0899 C.ar    1  UNL1        0.0620
     12 C          66.2243   95.1217   12.9340 C.ar    1  UNL1        0.1038
     13 N          66.1691   96.3442   12.0667 N.ar    1  UNL1       -0.2268
     14 C          66.6077   95.9535   10.6864 C.ar    1  UNL1        0.1415
     15 N          66.7521   96.7417    9.4184 N.ar    1  UNL1       -0.3374
     16 C          67.2228   96.0659    8.1648 C.ar    1  UNL1        0.0744
     17 C          67.5492   94.6019    8.1792 C.ar    1  UNL1        0.0300
     18 C          67.4048   93.8137    9.4471 C.ar    1  UNL1        0.0622
     19 CL         67.7311   92.3497    9.4615 Cl      1  UNL1       -0.0821
     20 C          66.9340   94.4895   10.7008 C.ar    1  UNL1        0.0491
     21 H          66.5379   97.7026    9.4090 H       1  UNL1        0.1674
     22 N          62.0511   90.8211   11.8630 N.pl3   1  UNL1       -0.2127
     23 H          61.4369   91.5902   11.8394 H       1  UNL1        0.1738
     24 S          61.7348   89.5843   11.0754 S.O2    1  UNL1        0.0780
     25 O          60.6536   89.2368   12.0554 O.2     1  UNL1       -0.1498
     26 O          62.8159   89.9318   10.0955 O.2     1  UNL1       -0.1498
     27 C          61.4186   88.3475   10.2878 C.ar    1  UNL1        0.1797
     28 C          62.0382   87.0360   10.6702 C.ar    1  UNL1        0.1611
     29 F          62.9739   86.9614   11.8401 F       1  UNL1       -0.2027
     30 C          61.7220   85.7992    9.8826 C.ar    1  UNL1        0.0312
     31 C          60.7863   85.8738    8.7127 C.ar    1  UNL1        0.0047
     32 C          60.1667   87.1853    8.3303 C.ar    1  UNL1        0.0312
     33 C          60.4829   88.4221    9.1179 C.ar    1  UNL1        0.1611
     34 F          59.8633   89.7336    8.7355 F       1  UNL1       -0.2027
@<TRIPOS>BOND
     1     9    10    2
     2    10     1    1
     3     1     2   ar
     4     2     3    1
     5     2     4   ar
     6     4     5   ar
     7     5     6   ar
     8     6    22    1
     9    22    24    1
    10    24    25    2
    11    24    26    2
    12    24    27    1
    13    27    28   ar
    14    28    29    1
    15    28    30   ar
    16    30    31   ar
    17    31    32   ar
    18    32    33   ar
    19    33    34    1
    20     6     7   ar
    21     7     8    1
    22    10    11    1
    23    11    12   ar
    24    12    13   ar
    25    13    14   ar
    26    14    15   ar
    27    15    16   ar
    28    16    17   ar
    29    17    18   ar
    30    18    19    1
    31    18    20   ar
    32     7     1   ar
    33    20    11   ar
    34    33    27   ar
    35    20    14    1
    36    22    23    1
    37    15    21    1
@<TRIPOS>MOLECULE
*****
 34 37 0 0 0
SMALL
GASTEIGER

@<TRIPOS>ATOM
      1 C          61.6238   88.4646   10.5860 C.ar    1  UNL1        0.0951
      2 C          60.6025   88.5726    9.4928 C.ar    1  UNL1        0.1454
      3 F          59.7313   89.7900    9.3978 F       1  UNL1       -0.2040
      4 C          60.4524   87.4632    8.4945 C.ar    1  UNL1        0.0312
      5 C          61.3235   86.2458    8.5894 C.ar    1  UNL1        0.0204
      6 C          62.3449   86.1378    9.6826 C.ar    1  UNL1        0.0924
      7 C          62.4950   87.2472   10.6809 C.ar    1  UNL1        0.1598
      8 F          63.5163   87.1393   11.7742 F       1  UNL1       -0.2026
      9 O          60.8225   89.6776   12.7392 O.2     1  UNL1       -0.2864
     10 C          61.7740   89.5741   11.5844 C.2     1  UNL1        0.2016
     11 C          62.8757   90.5799   11.4278 C.ar    1  UNL1        0.0620
     12 C          63.0967   91.4676   10.2390 C.ar    1  UNL1        0.1038
     13 N          64.3075   92.3109   10.5090 N.ar    1  UNL1       -0.2268
     14 C          64.8347   91.9445   11.8647 C.ar    1  UNL1        0.1415
     15 N          66.0062   92.4468   12.6554 N.ar    1  UNL1       -0.3374
     16 C          66.2928   91.8793   14.0139 C.ar    1  UNL1        0.0744
     17 C          65.4079   90.8094   14.5818 C.ar    1  UNL1        0.0300
     18 C          64.2364   90.3071   13.7911 C.ar    1  UNL1        0.0622
     19 CL         63.3515   89.2373   14.3589 Cl      1  UNL1       -0.0821
     20 C          63.9498   90.8747   12.4325 C.ar    1  UNL1        0.0491
     21 H          66.5870   93.1490   12.2827 H       1  UNL1        0.1674
     22 N          63.2160   84.9204    9.7775 N.pl3   1  UNL1       -0.2127
     23 H          63.9078   84.7559    9.0966 H       1  UNL1        0.1738
     24 S          63.0332   83.9538   10.9099 S.O2    1  UNL1        0.0780
     25 O          64.4141   83.4172   10.6747 O.2     1  UNL1       -0.1498
     26 O          61.6524   84.4904   11.1450 O.2     1  UNL1       -0.1498
     27 C          62.8503   82.9873   12.0422 C.ar    1  UNL1        0.1797
     28 C          62.7861   81.5139   11.7677 C.ar    1  UNL1        0.1611
     29 F          62.9048   81.0073   10.3609 F       1  UNL1       -0.2027
     30 C          62.6032   80.5473   12.9000 C.ar    1  UNL1        0.0312
     31 C          62.4845   81.0539   14.3069 C.ar    1  UNL1        0.0047
     32 C          62.5488   82.5272   14.5813 C.ar    1  UNL1        0.0312
     33 C          62.7317   83.4939   13.4491 C.ar    1  UNL1        0.1611
     34 F          62.7959   84.9671   13.7236 F       1  UNL1       -0.2027
@<TRIPOS>BOND
     1     9    10    2
     2    10     1    1
     3     1     2   ar
     4     2     3    1
     5     2     4   ar
     6     4     5   ar
     7     5     6   ar
     8     6    22    1
     9    22    24    1
    10    24    25    2
    11    24    26    2
    12    24    27    1
    13    27    28   ar
    14    28    29    1
    15    28    30   ar
    16    30    31   ar
    17    31    32   ar
    18    32    33   ar
    19    33    34    1
    20     6     7   ar
    21     7     8    1
    22    10    11    1
    23    11    12   ar
    24    12    13   ar
    25    13    14   ar
    26    14    15   ar
    27    15    16   ar
    28    16    17   ar
    29    17    18   ar
    30    18    19    1
    31    18    20   ar
    32     7     1   ar
    33    20    11   ar
    34    33    27   ar
    35    20    14    1
    36    22    23    1
    37    15    21    1
@<TRIPOS>MOLECULE
*****
 34 37 0 0 0
SMALL
GASTEIGER

@<TRIPOS>ATOM
      1 C          61.5087   88.4008   10.9187 C.ar    1  UNL1        0.0951
      2 C          60.6836   88.5486    9.6748 C.ar    1  UNL1        0.1454
      3 F          59.7567   89.7184    9.5243 F       1  UNL1       -0.2040
      4 C          60.7853   87.5267    8.5816 C.ar    1  UNL1        0.0312
      5 C          61.7122   86.3570    8.7321 C.ar    1  UNL1        0.0204
      6 C          62.5373   86.2092    9.9760 C.ar    1  UNL1        0.0924
      7 C          62.4356   87.2311   11.0693 C.ar    1  UNL1        0.1598
      8 F          63.2607   87.0834   12.3132 F       1  UNL1       -0.2026
      9 O          60.0682   89.9793   12.3963 O.2     1  UNL1       -0.2864
     10 C          61.4070   89.4228   12.0121 C.2     1  UNL1        0.2016
     11 C          62.6442   89.8882   12.7212 C.ar    1  UNL1        0.0620
     12 C          63.0610   89.5053   14.1103 C.ar    1  UNL1        0.1038
     13 N          64.3562   90.1987   14.4132 N.ar    1  UNL1       -0.2268
     14 C          64.7399   91.0100   13.2113 C.ar    1  UNL1        0.1415
     15 N          65.9159   91.8988   12.9340 N.ar    1  UNL1       -0.3374
     16 C          66.0339   92.5956   11.6110 C.ar    1  UNL1        0.0744
     17 C          64.9758   92.4037   10.5653 C.ar    1  UNL1        0.0300
     18 C          63.7997   91.5150   10.8425 C.ar    1  UNL1        0.0622
     19 CL         62.7416   91.3231    9.7968 Cl      1  UNL1       -0.0821
     20 C          63.6818   90.8181   12.1656 C.ar    1  UNL1        0.0491
     21 H          66.6104   92.0247   13.6204 H       1  UNL1        0.1674
     22 N          63.4642   85.0395   10.1266 N.pl3   1  UNL1       -0.2127
     23 H          64.2711   84.9755    9.5662 H       1  UNL1        0.1738
     24 S          63.1616   83.9673   11.1310 S.O2    1  UNL1        0.0780
     25 O          64.5842   83.4973   11.0579 O.2     1  UNL1       -0.1498
     26 O          61.7390   84.4372   11.2041 O.2     1  UNL1       -0.1498
     27 C          62.8589   82.8951   12.1353 C.ar    1  UNL1        0.1797
     28 C          62.5875   83.2612   13.5645 C.ar    1  UNL1        0.1611
     29 F          62.6189   84.6994   13.9891 F       1  UNL1       -0.2027
     30 C          62.2849   82.1890   14.5689 C.ar    1  UNL1        0.0312
     31 C          62.2535   80.7508   14.1443 C.ar    1  UNL1        0.0047
     32 C          62.5249   80.3847   12.7151 C.ar    1  UNL1        0.0312
     33 C          62.8276   81.4568   11.7107 C.ar    1  UNL1        0.1611
     34 F          63.0990   81.0906   10.2816 F       1  UNL1       -0.2027
@<TRIPOS>BOND
     1     9    10    2
     2    10     1    1
     3     1     2   ar
     4     2     3    1
     5     2     4   ar
     6     4     5   ar
     7     5     6   ar
     8     6    22    1
     9    22    24    1
    10    24    25    2
    11    24    26    2
    12    24    27    1
    13    27    28   ar
    14    28    29    1
    15    28    30   ar
    16    30    31   ar
    17    31    32   ar
    18    32    33   ar
    19    33    34    1
    20     6     7   ar
    21     7     8    1
    22    10    11    1
    23    11    12   ar
    24    12    13   ar
    25    13    14   ar
    26    14    15   ar
    27    15    16   ar
    28    16    17   ar
    29    17    18   ar
    30    18    19    1
    31    18    20   ar
    32     7     1   ar
    33    20    11   ar
    34    33    27   ar
    35    20    14    1
    36    22    23    1
    37    15    21    1
@<TRIPOS>MOLECULE
*****
 34 37 0 0 0
SMALL
GASTEIGER

@<TRIPOS>ATOM
      1 C          61.7284   89.2304   10.2549 C.ar    1  UNL1        0.0951
      2 C          60.4297   89.4191    9.5283 C.ar    1  UNL1        0.1454
      3 F          59.8444   90.7925    9.3828 F       1  UNL1       -0.2040
      4 C          59.7165   88.2343    8.9473 C.ar    1  UNL1        0.0312
      5 C          60.3018   86.8609    9.0929 C.ar    1  UNL1        0.0204
      6 C          61.6004   86.6722    9.8195 C.ar    1  UNL1        0.0924
      7 C          62.3137   87.8570   10.4005 C.ar    1  UNL1        0.1598
      8 F          63.6124   87.6683   11.1271 F       1  UNL1       -0.2026
      9 O          62.7675   91.5942    9.9680 O.2     1  UNL1       -0.2864
     10 C          62.4418   90.4151   10.8360 C.2     1  UNL1        0.2016
     11 C          62.8294   90.4207   12.2851 C.ar    1  UNL1        0.0620
     12 C          62.1060   89.7156   13.3939 C.ar    1  UNL1        0.1038
     13 N          62.8379   89.9914   14.6738 N.ar    1  UNL1       -0.2268
     14 C          64.0137   90.8670   14.3560 C.ar    1  UNL1        0.1415
     15 N          65.0885   91.4569   15.2201 N.ar    1  UNL1       -0.3374
     16 C          66.1579   92.3121   14.6079 C.ar    1  UNL1        0.0744
     17 C          66.1526   92.5774   13.1316 C.ar    1  UNL1        0.0300
     18 C          65.0778   91.9875   12.2674 C.ar    1  UNL1        0.0622
     19 CL         65.0725   92.2528   10.7911 Cl      1  UNL1       -0.0821
     20 C          64.0084   91.1323   12.8796 C.ar    1  UNL1        0.0491
     21 H          65.0920   91.2828   16.1891 H       1  UNL1        0.1674
     22 N          62.1857   85.2988    9.9650 N.pl3   1  UNL1       -0.2127
     23 H          62.3073   84.7289    9.1715 H       1  UNL1        0.1738
     24 S          62.5857   84.7938   11.3196 S.O2    1  UNL1        0.0780
     25 O          63.7051   84.0126   10.6978 O.2     1  UNL1       -0.1498
     26 O          61.4663   85.5749   11.9414 O.2     1  UNL1       -0.1498
     27 C          62.9856   84.2887   12.6742 C.ar    1  UNL1        0.1797
     28 C          62.7410   82.8553   13.0425 C.ar    1  UNL1        0.1611
     29 F          62.0964   81.9271   12.0562 F       1  UNL1       -0.2027
     30 C          63.1408   82.3502   14.3971 C.ar    1  UNL1        0.0312
     31 C          63.7854   83.2785   15.3835 C.ar    1  UNL1        0.0047
     32 C          64.0300   84.7118   15.0151 C.ar    1  UNL1        0.0312
     33 C          63.6302   85.2170   13.6605 C.ar    1  UNL1        0.1611
     34 F          63.8748   86.6503   13.2923 F       1  UNL1       -0.2027
@<TRIPOS>BOND
     1     9    10    2
     2    10     1    1
     3     1     2   ar
     4     2     3    1
     5     2     4   ar
     6     4     5   ar
     7     5     6   ar
     8     6    22    1
     9    22    24    1
    10    24    25    2
    11    24    26    2
    12    24    27    1
    13    27    28   ar
    14    28    29    1
    15    28    30   ar
    16    30    31   ar
    17    31    32   ar
    18    32    33   ar
    19    33    34    1
    20     6     7   ar
    21     7     8    1
    22    10    11    1
    23    11    12   ar
    24    12    13   ar
    25    13    14   ar
    26    14    15   ar
    27    15    16   ar
    28    16    17   ar
    29    17    18   ar
    30    18    19    1
    31    18    20   ar
    32     7     1   ar
    33    20    11   ar
    34    33    27   ar
    35    20    14    1
    36    22    23    1
    37    15    21    1
