@<TRIPOS>MOLECULE
*****
 34 37 0 0 0
SMALL
GASTEIGER

@<TRIPOS>ATOM
      1 C          65.2217   92.0430   12.4070 C.ar    1  UNL1       -0.0004
      2 C          64.8010   91.2234   13.5907 C.ar    1  UNL1       -0.0024
      3 C          63.6411   90.2794   13.4752 C.ar    1  UNL1       -0.0002
      4 C          62.9019   90.1550   12.1759 C.ar    1  UNL1        0.0030
      5 C          61.7420   89.2108   12.0604 C.ar    1  UNL1        0.0369
      6 C          61.0028   89.0864   10.7611 C.ar    1  UNL1        0.1391
      7 C          61.4235   89.9061    9.5774 C.ar    1  UNL1        0.0369
      8 C          62.5834   90.8501    9.6929 C.ar    1  UNL1        0.0031
      9 C          63.3226   90.9746   10.9922 C.ar    1  UNL1       -0.0001
     10 C          64.4825   91.9186   11.1078 C.ar    1  UNL1       -0.0024
     11 C          66.3816   92.9872   12.5225 C.3     1  UNL1        0.1240
     12 N          67.2572   92.9541   13.7400 N.ar    1  UNL1       -0.3045
     13 C          67.1437   93.8570   14.9324 C.ar    1  UNL1        0.0983
     14 C          68.2164   93.4732   15.9083 C.ar    1  UNL1        0.1193
     15 N          68.9928   92.3331   15.3189 N.ar    1  UNL1       -0.2223
     16 C          68.4000   92.0123   13.9789 C.ar    1  UNL1        0.1788
     17 C          66.0811   95.3446   11.4727 C.3     1  UNL1        0.0197
     18 C          66.6659   93.9643   11.4206 C.3     1  UNL1        0.0827
     19 N          67.5351   93.5612   10.2665 N.3     1  UNL1       -0.2696
     20 C          68.1294   92.1846   10.2200 C.3     1  UNL1        0.0897
     21 C          67.8102   94.5345    9.1588 C.3     1  UNL1        0.0897
     22 O          59.8429   88.1424   10.6456 O.3     1  UNL1       -0.4706
     23 C          59.8858   87.0196    9.6518 C.3     1  UNL1        0.2320
     24 C          61.1000   86.1434    9.5620 C.ar    1  UNL1        0.0213
     25 C          61.7648   85.9168    8.2367 C.ar    1  UNL1       -0.0007
     26 C          62.9791   85.0406    8.1468 C.ar    1  UNL1       -0.0001
     27 C          63.5284   84.3911    9.3823 C.ar    1  UNL1        0.0045
     28 C          62.8634   84.6178   10.7077 C.ar    1  UNL1        0.0529
     29 C          61.6492   85.4940   10.7975 C.ar    1  UNL1        0.0038
     30 C          63.4127   83.9684   11.9432 C.2     1  UNL1        0.2427
     31 N          64.6830   83.1739   11.8714 N.am    1  UNL1       -0.3253
     32 O          62.6916   84.1133   13.2505 O.2     1  UNL1       -0.2704
     33 H          65.1563   83.0788   11.0133 H       1  UNL1        0.1453
     34 H          65.0436   82.7476   12.6823 H       1  UNL1        0.1453
@<TRIPOS>BOND
     1    17    18    1
     2    18    11    1
     3    11     1    1
     4     1     2   ar
     5     2     3   ar
     6     3     4   ar
     7     4     5   ar
     8     5     6   ar
     9     6    22    1
    10    22    23    1
    11    23    24    1
    12    24    25   ar
    13    25    26   ar
    14    26    27   ar
    15    27    28   ar
    16    28    30    1
    17    30    31   am
    18    30    32    2
    19    28    29   ar
    20     6     7   ar
    21     7     8   ar
    22     8     9   ar
    23     9    10   ar
    24    11    12    1
    25    12    13   ar
    26    13    14   ar
    27    14    15   ar
    28    15    16   ar
    29    18    19    1
    30    19    20    1
    31    19    21    1
    32    10     1   ar
    33    16    12   ar
    34     9     4   ar
    35    29    24   ar
    36    31    33    1
    37    31    34    1
@<TRIPOS>MOLECULE
*****
 34 37 0 0 0
SMALL
GASTEIGER

@<TRIPOS>ATOM
      1 C          65.1873   92.0557   12.3624 C.ar    1  UNL1       -0.0004
      2 C          64.8521   91.1618   13.5194 C.ar    1  UNL1       -0.0024
      3 C          63.7215   90.1824   13.4075 C.ar    1  UNL1       -0.0002
      4 C          62.9261   90.0969   12.1386 C.ar    1  UNL1        0.0030
      5 C          61.7955   89.1175   12.0268 C.ar    1  UNL1        0.0369
      6 C          61.0001   89.0319   10.7579 C.ar    1  UNL1        0.1391
      7 C          61.3353   89.9259    9.6009 C.ar    1  UNL1        0.0369
      8 C          62.4659   90.9052    9.7128 C.ar    1  UNL1        0.0031
      9 C          63.2613   90.9908   10.9817 C.ar    1  UNL1       -0.0001
     10 C          64.3919   91.9701   11.0936 C.ar    1  UNL1       -0.0024
     11 C          66.3179   93.0351   12.4743 C.3     1  UNL1        0.1240
     12 N          66.6397   93.9435   11.3248 N.ar    1  UNL1       -0.3045
     13 C          66.3257   95.4080   11.2436 C.ar    1  UNL1        0.0983
     14 C          66.8240   95.9164    9.9233 C.ar    1  UNL1        0.1193
     15 N          67.4461   94.7662    9.1885 N.ar    1  UNL1       -0.2223
     16 C          67.3322   93.5468   10.0547 C.ar    1  UNL1        0.1788
     17 C          66.6262   93.9035   14.9035 C.3     1  UNL1        0.0197
     18 C          67.1266   93.1062   13.7356 C.3     1  UNL1        0.0827
     19 N          68.4357   92.3799   13.8291 N.3     1  UNL1       -0.2696
     20 C          69.2718   92.4976   15.0690 C.3     1  UNL1        0.0897
     21 C          68.9088   91.5361   12.6828 C.3     1  UNL1        0.0897
     22 O          59.8695   88.0526   10.6460 O.3     1  UNL1       -0.4706
     23 C          59.9339   86.9448    9.6366 C.3     1  UNL1        0.2320
     24 C          61.1548   86.0775    9.5517 C.ar    1  UNL1        0.0213
     25 C          61.8255   85.8540    8.2288 C.ar    1  UNL1       -0.0007
     26 C          63.0464   84.9867    8.1439 C.ar    1  UNL1       -0.0001
     27 C          63.5967   84.3430    9.3820 C.ar    1  UNL1        0.0045
     28 C          62.9259   84.5666   10.7050 C.ar    1  UNL1        0.0529
     29 C          61.7051   85.4338   10.7898 C.ar    1  UNL1        0.0038
     30 C          63.4762   83.9228   11.9431 C.2     1  UNL1        0.2427
     31 N          64.7287   83.1008   11.8677 N.am    1  UNL1       -0.3253
     32 O          62.7740   84.1011   13.2565 O.2     1  UNL1       -0.2704
     33 H          65.1896   82.9838   11.0056 H       1  UNL1        0.1453
     34 H          65.0898   82.6783   12.6803 H       1  UNL1        0.1453
@<TRIPOS>BOND
     1    17    18    1
     2    18    11    1
     3    11     1    1
     4     1     2   ar
     5     2     3   ar
     6     3     4   ar
     7     4     5   ar
     8     5     6   ar
     9     6    22    1
    10    22    23    1
    11    23    24    1
    12    24    25   ar
    13    25    26   ar
    14    26    27   ar
    15    27    28   ar
    16    28    30    1
    17    30    31   am
    18    30    32    2
    19    28    29   ar
    20     6     7   ar
    21     7     8   ar
    22     8     9   ar
    23     9    10   ar
    24    11    12    1
    25    12    13   ar
    26    13    14   ar
    27    14    15   ar
    28    15    16   ar
    29    18    19    1
    30    19    20    1
    31    19    21    1
    32    10     1   ar
    33    16    12   ar
    34     9     4   ar
    35    29    24   ar
    36    31    33    1
    37    31    34    1
@<TRIPOS>MOLECULE
*****
 34 37 0 0 0
SMALL
GASTEIGER

@<TRIPOS>ATOM
      1 C          65.2997   92.3668   11.7151 C.ar    1  UNL1       -0.0004
      2 C          64.5105   92.4964   10.4462 C.ar    1  UNL1       -0.0024
      3 C          63.4790   91.4653   10.0959 C.ar    1  UNL1       -0.0002
      4 C          63.2367   90.3045   11.0146 C.ar    1  UNL1        0.0030
      5 C          62.2051   89.2734   10.6643 C.ar    1  UNL1        0.0369
      6 C          61.9628   88.1127   11.5830 C.ar    1  UNL1        0.1391
      7 C          62.7521   87.9831   12.8520 C.ar    1  UNL1        0.0369
      8 C          63.7836   89.0142   13.2022 C.ar    1  UNL1        0.0031
      9 C          64.0259   90.1749   12.2835 C.ar    1  UNL1       -0.0001
     10 C          65.0574   91.2060   12.6338 C.ar    1  UNL1       -0.0024
     11 C          66.3313   93.3979   12.0655 C.3     1  UNL1        0.1240
     12 N          67.1274   93.2630   13.3296 N.ar    1  UNL1       -0.3045
     13 C          66.8355   93.9464   14.6325 C.ar    1  UNL1        0.0983
     14 C          67.8829   93.5268   15.6209 C.ar    1  UNL1        0.1193
     15 N          68.8222   92.5840   14.9288 N.ar    1  UNL1       -0.2223
     16 C          68.3552   92.4210   13.5127 C.ar    1  UNL1        0.1788
     17 C          65.9509   95.8961   11.4617 C.3     1  UNL1        0.0197
     18 C          66.5667   94.5639   11.1517 C.3     1  UNL1        0.0827
     19 N          67.4179   94.3978    9.9278 N.3     1  UNL1       -0.2696
     20 C          68.1630   93.1158    9.7008 C.3     1  UNL1        0.0897
     21 C          67.5241   95.5135    8.9310 C.3     1  UNL1        0.0897
     22 O          60.9313   87.0815   11.2327 O.3     1  UNL1       -0.4706
     23 C          61.2973   85.9234   10.3524 C.3     1  UNL1        0.2320
     24 C          62.3432   84.9445   10.7971 C.ar    1  UNL1        0.0213
     25 C          63.2502   84.3058    9.7875 C.ar    1  UNL1       -0.0007
     26 C          64.2962   83.3268   10.2321 C.ar    1  UNL1       -0.0001
     27 C          64.4351   82.9866   11.6864 C.ar    1  UNL1        0.0045
     28 C          63.5280   83.6254   12.6960 C.ar    1  UNL1        0.0529
     29 C          62.4821   84.6043   12.2514 C.ar    1  UNL1        0.0038
     30 C          63.6670   83.2852   14.1503 C.2     1  UNL1        0.2427
     31 N          64.7155   83.9625   14.9822 N.am    1  UNL1       -0.3253
     32 O          62.7574   82.2678   14.7728 O.2     1  UNL1       -0.2704
     33 H          65.3125   84.6303   14.5736 H       1  UNL1        0.1453
     34 H          64.8067   83.7392   15.9367 H       1  UNL1        0.1453
@<TRIPOS>BOND
     1    17    18    1
     2    18    11    1
     3    11     1    1
     4     1     2   ar
     5     2     3   ar
     6     3     4   ar
     7     4     5   ar
     8     5     6   ar
     9     6    22    1
    10    22    23    1
    11    23    24    1
    12    24    25   ar
    13    25    26   ar
    14    26    27   ar
    15    27    28   ar
    16    28    30    1
    17    30    31   am
    18    30    32    2
    19    28    29   ar
    20     6     7   ar
    21     7     8   ar
    22     8     9   ar
    23     9    10   ar
    24    11    12    1
    25    12    13   ar
    26    13    14   ar
    27    14    15   ar
    28    15    16   ar
    29    18    19    1
    30    19    20    1
    31    19    21    1
    32    10     1   ar
    33    16    12   ar
    34     9     4   ar
    35    29    24   ar
    36    31    33    1
    37    31    34    1
@<TRIPOS>MOLECULE
*****
 34 37 0 0 0
SMALL
GASTEIGER

@<TRIPOS>ATOM
      1 C          65.2341   92.0298   12.4077 C.ar    1  UNL1       -0.0004
      2 C          64.8441   91.1976   13.5932 C.ar    1  UNL1       -0.0024
      3 C          63.6650   90.2747   13.5063 C.ar    1  UNL1       -0.0002
      4 C          62.8757   90.1838   12.2340 C.ar    1  UNL1        0.0030
      5 C          61.6965   89.2607   12.1472 C.ar    1  UNL1        0.0369
      6 C          60.9072   89.1699   10.8749 C.ar    1  UNL1        0.1391
      7 C          61.2972   90.0021    9.6893 C.ar    1  UNL1        0.0369
      8 C          62.4764   90.9251    9.7762 C.ar    1  UNL1        0.0031
      9 C          63.2656   91.0159   11.0485 C.ar    1  UNL1       -0.0001
     10 C          64.4448   91.9389   11.1353 C.ar    1  UNL1       -0.0024
     11 C          66.4133   92.9528   12.4945 C.3     1  UNL1        0.1240
     12 N          67.2877   92.9400   13.7132 N.ar    1  UNL1       -0.3045
     13 C          67.1683   93.8576   14.8937 C.ar    1  UNL1        0.0983
     14 C          68.2418   93.4920   15.8755 C.ar    1  UNL1        0.1193
     15 N          69.0247   92.3483   15.3018 N.ar    1  UNL1       -0.2223
     16 C          68.4350   92.0072   13.9654 C.ar    1  UNL1        0.1788
     17 C          66.1418   95.2736   11.3585 C.3     1  UNL1        0.0197
     18 C          66.7181   93.8887   11.3626 C.3     1  UNL1        0.0827
     19 N          67.5992   93.4397   10.2347 N.3     1  UNL1       -0.2696
     20 C          67.9541   94.3952    9.1341 C.3     1  UNL1        0.0897
     21 C          68.1254   92.0353   10.2073 C.3     1  UNL1        0.0897
     22 O          59.7281   88.2469   10.7880 O.3     1  UNL1       -0.4706
     23 C          59.5895   87.3149    9.6209 C.3     1  UNL1        0.2320
     24 C          60.7288   86.4173    9.2384 C.ar    1  UNL1        0.0213
     25 C          61.7621   86.0411   10.2585 C.ar    1  UNL1       -0.0007
     26 C          62.9015   85.1435    9.8761 C.ar    1  UNL1       -0.0001
     27 C          63.0075   84.6221    8.4736 C.ar    1  UNL1        0.0045
     28 C          61.9741   84.9984    7.4535 C.ar    1  UNL1        0.0529
     29 C          60.8348   85.8960    7.8359 C.ar    1  UNL1        0.0038
     30 C          62.0801   84.4771    6.0510 C.2     1  UNL1        0.2427
     31 N          60.9159   83.7686    5.4243 N.am    1  UNL1       -0.3253
     32 O          63.3502   84.6643    5.2753 O.2     1  UNL1       -0.2704
     33 H          60.0823   83.6458    5.9334 H       1  UNL1        0.1453
     34 H          60.9854   83.4265    4.5038 H       1  UNL1        0.1453
@<TRIPOS>BOND
     1    17    18    1
     2    18    11    1
     3    11     1    1
     4     1     2   ar
     5     2     3   ar
     6     3     4   ar
     7     4     5   ar
     8     5     6   ar
     9     6    22    1
    10    22    23    1
    11    23    24    1
    12    24    25   ar
    13    25    26   ar
    14    26    27   ar
    15    27    28   ar
    16    28    30    1
    17    30    31   am
    18    30    32    2
    19    28    29   ar
    20     6     7   ar
    21     7     8   ar
    22     8     9   ar
    23     9    10   ar
    24    11    12    1
    25    12    13   ar
    26    13    14   ar
    27    14    15   ar
    28    15    16   ar
    29    18    19    1
    30    19    20    1
    31    19    21    1
    32    10     1   ar
    33    16    12   ar
    34     9     4   ar
    35    29    24   ar
    36    31    33    1
    37    31    34    1
@<TRIPOS>MOLECULE
*****
 34 37 0 0 0
SMALL
GASTEIGER

@<TRIPOS>ATOM
      1 C          62.3881   88.1362   10.7474 C.ar    1  UNL1       -0.0004
      2 C          62.3974   89.4736   10.0682 C.ar    1  UNL1       -0.0024
      3 C          63.0034   90.6603   10.7569 C.ar    1  UNL1       -0.0002
      4 C          63.6002   90.5096   12.1248 C.ar    1  UNL1        0.0030
      5 C          64.2063   91.6964   12.8136 C.ar    1  UNL1        0.0369
      6 C          64.8031   91.5457   14.1815 C.ar    1  UNL1        0.1391
      7 C          64.7938   90.2083   14.8606 C.ar    1  UNL1        0.0369
      8 C          64.1877   89.0216   14.1719 C.ar    1  UNL1        0.0031
      9 C          63.5910   89.1722   12.8040 C.ar    1  UNL1       -0.0001
     10 C          62.9849   87.9855   12.1153 C.ar    1  UNL1       -0.0024
     11 C          61.7820   86.9494   10.0587 C.3     1  UNL1        0.1240
     12 N          60.6969   87.1457    9.0418 N.ar    1  UNL1       -0.3045
     13 C          60.0902   88.4580    8.6420 C.ar    1  UNL1        0.0983
     14 C          59.0463   88.1876    7.5993 C.ar    1  UNL1        0.1193
     15 N          59.0078   86.7081    7.3548 N.ar    1  UNL1       -0.2223
     16 C          60.0279   86.0643    8.2463 C.ar    1  UNL1        0.1788
     17 C          61.8828   84.9316   11.6922 C.3     1  UNL1        0.0197
     18 C          62.2611   85.5664   10.3868 C.3     1  UNL1        0.0827
     19 N          63.1184   84.8181    9.4095 N.3     1  UNL1       -0.2696
     20 C          63.2268   85.2921    7.9905 C.3     1  UNL1        0.0897
     21 C          63.8673   83.5958    9.8513 C.3     1  UNL1        0.0897
     22 O          65.4092   92.7324   14.8702 O.3     1  UNL1       -0.4706
     23 C          66.6082   93.4118   14.2779 C.3     1  UNL1        0.2320
     24 C          66.7995   93.4333   12.7903 C.ar    1  UNL1        0.0213
     25 C          67.4875   92.2894   12.1061 C.ar    1  UNL1       -0.0007
     26 C          67.6788   92.3108   10.6184 C.ar    1  UNL1       -0.0001
     27 C          67.1821   93.4762    9.8151 C.ar    1  UNL1        0.0045
     28 C          66.4941   94.6201   10.4994 C.ar    1  UNL1        0.0529
     29 C          66.3028   94.5986   11.9870 C.ar    1  UNL1        0.0038
     30 C          65.9974   95.7854    9.6961 C.2     1  UNL1        0.2427
     31 N          64.6347   96.3532    9.9620 N.am    1  UNL1       -0.3253
     32 O          66.8634   96.3829    8.6270 O.2     1  UNL1       -0.2704
     33 H          64.0664   95.9611   10.6637 H       1  UNL1        0.1453
     34 H          64.3087   97.1181    9.4347 H       1  UNL1        0.1453
@<TRIPOS>BOND
     1    17    18    1
     2    18    11    1
     3    11     1    1
     4     1     2   ar
     5     2     3   ar
     6     3     4   ar
     7     4     5   ar
     8     5     6   ar
     9     6    22    1
    10    22    23    1
    11    23    24    1
    12    24    25   ar
    13    25    26   ar
    14    26    27   ar
    15    27    28   ar
    16    28    30    1
    17    30    31   am
    18    30    32    2
    19    28    29   ar
    20     6     7   ar
    21     7     8   ar
    22     8     9   ar
    23     9    10   ar
    24    11    12    1
    25    12    13   ar
    26    13    14   ar
    27    14    15   ar
    28    15    16   ar
    29    18    19    1
    30    19    20    1
    31    19    21    1
    32    10     1   ar
    33    16    12   ar
    34     9     4   ar
    35    29    24   ar
    36    31    33    1
    37    31    34    1
@<TRIPOS>MOLECULE
*****
 34 37 0 0 0
SMALL
GASTEIGER

@<TRIPOS>ATOM
      1 C          63.5268   85.6479   12.8898 C.ar    1  UNL1       -0.0004
      2 C          64.2403   85.5865   14.2078 C.ar    1  UNL1       -0.0024
      3 C          64.6056   86.8536   14.9226 C.ar    1  UNL1       -0.0002
      4 C          64.2575   88.1821   14.3194 C.ar    1  UNL1        0.0030
      5 C          64.6229   89.4492   15.0342 C.ar    1  UNL1        0.0369
      6 C          64.2747   90.7777   14.4311 C.ar    1  UNL1        0.1391
      7 C          63.5612   90.8391   13.1130 C.ar    1  UNL1        0.0369
      8 C          63.1959   89.5720   12.3982 C.ar    1  UNL1        0.0031
      9 C          63.5440   88.2435   13.0014 C.ar    1  UNL1       -0.0001
     10 C          63.1787   86.9764   12.2866 C.ar    1  UNL1       -0.0024
     11 C          63.1615   84.3808   12.1749 C.3     1  UNL1        0.1240
     12 N          62.6535   83.2018   12.9507 N.ar    1  UNL1       -0.3045
     13 C          62.3819   81.8338   12.3986 C.ar    1  UNL1        0.0983
     14 C          61.8885   80.9702   13.5215 C.ar    1  UNL1        0.1193
     15 N          61.8551   81.8045   14.7676 N.ar    1  UNL1       -0.2223
     16 C          62.3279   83.1837   14.4148 C.ar    1  UNL1        0.1788
     17 C          64.2587   83.3065   10.0792 C.3     1  UNL1        0.0197
     18 C          63.3041   84.2927   10.6843 C.3     1  UNL1        0.0827
     19 N          62.4921   85.1909    9.7988 N.3     1  UNL1       -0.2696
     20 C          61.2063   85.7771   10.3020 C.3     1  UNL1        0.0897
     21 C          62.9658   85.5027    8.4102 C.3     1  UNL1        0.0897
     22 O          64.6400   92.0448   15.1459 O.3     1  UNL1       -0.4706
     23 C          65.9960   92.6545   14.9461 C.3     1  UNL1        0.2320
     24 C          66.6474   92.6085   13.5957 C.ar    1  UNL1        0.0213
     25 C          67.7833   91.6622   13.3428 C.ar    1  UNL1       -0.0007
     26 C          68.4347   91.6162   11.9924 C.ar    1  UNL1       -0.0001
     27 C          67.9502   92.5167   10.8949 C.ar    1  UNL1        0.0045
     28 C          66.8142   93.4631   11.1479 C.ar    1  UNL1        0.0529
     29 C          66.1628   93.5090   12.4982 C.ar    1  UNL1        0.0038
     30 C          66.3297   94.3635   10.0504 C.2     1  UNL1        0.2427
     31 N          65.1400   95.2487   10.2768 N.am    1  UNL1       -0.3253
     32 O          67.0348   94.3788    8.7266 O.2     1  UNL1       -0.2704
     33 H          64.6772   95.2387   11.1457 H       1  UNL1        0.1453
     34 H          64.8220   95.8397    9.5566 H       1  UNL1        0.1453
@<TRIPOS>BOND
     1    17    18    1
     2    18    11    1
     3    11     1    1
     4     1     2   ar
     5     2     3   ar
     6     3     4   ar
     7     4     5   ar
     8     5     6   ar
     9     6    22    1
    10    22    23    1
    11    23    24    1
    12    24    25   ar
    13    25    26   ar
    14    26    27   ar
    15    27    28   ar
    16    28    30    1
    17    30    31   am
    18    30    32    2
    19    28    29   ar
    20     6     7   ar
    21     7     8   ar
    22     8     9   ar
    23     9    10   ar
    24    11    12    1
    25    12    13   ar
    26    13    14   ar
    27    14    15   ar
    28    15    16   ar
    29    18    19    1
    30    19    20    1
    31    19    21    1
    32    10     1   ar
    33    16    12   ar
    34     9     4   ar
    35    29    24   ar
    36    31    33    1
    37    31    34    1
@<TRIPOS>MOLECULE
*****
 34 37 0 0 0
SMALL
GASTEIGER

@<TRIPOS>ATOM
      1 C          63.5041   85.3762   13.4956 C.ar    1  UNL1       -0.0004
      2 C          64.3085   85.8557   14.6673 C.ar    1  UNL1       -0.0024
      3 C          64.6227   87.3149   14.8146 C.ar    1  UNL1       -0.0002
      4 C          64.1325   88.2948   13.7900 C.ar    1  UNL1        0.0030
      5 C          64.4468   89.7541   13.9373 C.ar    1  UNL1        0.0369
      6 C          63.9567   90.7340   12.9128 C.ar    1  UNL1        0.1391
      7 C          63.1523   90.2545   11.7410 C.ar    1  UNL1        0.0369
      8 C          62.8381   88.7952   11.5937 C.ar    1  UNL1        0.0031
      9 C          63.3282   87.8153   12.6183 C.ar    1  UNL1       -0.0001
     10 C          63.0140   86.3561   12.4710 C.ar    1  UNL1       -0.0024
     11 C          63.1899   83.9169   13.3483 C.3     1  UNL1        0.1240
     12 N          63.5495   83.1963   12.0828 N.ar    1  UNL1       -0.3045
     13 C          62.7233   82.1463   11.4008 C.ar    1  UNL1        0.0983
     14 C          63.4616   81.7002   10.1736 C.ar    1  UNL1        0.1193
     15 N          64.7440   82.4745   10.0971 N.ar    1  UNL1       -0.2223
     16 C          64.7983   83.3991   11.2771 C.ar    1  UNL1        0.1788
     17 C          62.0219   83.9263   15.6690 C.3     1  UNL1        0.0197
     18 C          62.5161   83.1782   14.4664 C.3     1  UNL1        0.0827
     19 N          62.3364   81.6914   14.3821 N.3     1  UNL1       -0.2696
     20 C          60.9616   81.1091   14.2374 C.3     1  UNL1        0.0897
     21 C          63.5314   80.7869   14.4423 C.3     1  UNL1        0.0897
     22 O          64.2709   92.1933   13.0600 O.3     1  UNL1       -0.4706
     23 C          65.6982   92.6528   13.1003 C.3     1  UNL1        0.2320
     24 C          66.3949   93.0481   11.8321 C.ar    1  UNL1        0.0213
     25 C          67.3186   92.0820   11.1514 C.ar    1  UNL1       -0.0007
     26 C          68.0153   92.4772    9.8831 C.ar    1  UNL1       -0.0001
     27 C          67.7883   93.8386    9.2956 C.ar    1  UNL1        0.0045
     28 C          66.8645   94.8047    9.9764 C.ar    1  UNL1        0.0529
     29 C          66.1678   94.4094   11.2446 C.ar    1  UNL1        0.0038
     30 C          66.6375   96.1660    9.3888 C.2     1  UNL1        0.2427
     31 N          67.7421   96.8551    8.6437 N.am    1  UNL1       -0.3253
     32 O          65.3059   96.8384    9.5464 O.2     1  UNL1       -0.2704
     33 H          68.6161   96.4138    8.5403 H       1  UNL1        0.1453
     34 H          67.5931   97.7486    8.2581 H       1  UNL1        0.1453
@<TRIPOS>BOND
     1    17    18    1
     2    18    11    1
     3    11     1    1
     4     1     2   ar
     5     2     3   ar
     6     3     4   ar
     7     4     5   ar
     8     5     6   ar
     9     6    22    1
    10    22    23    1
    11    23    24    1
    12    24    25   ar
    13    25    26   ar
    14    26    27   ar
    15    27    28   ar
    16    28    30    1
    17    30    31   am
    18    30    32    2
    19    28    29   ar
    20     6     7   ar
    21     7     8   ar
    22     8     9   ar
    23     9    10   ar
    24    11    12    1
    25    12    13   ar
    26    13    14   ar
    27    14    15   ar
    28    15    16   ar
    29    18    19    1
    30    19    20    1
    31    19    21    1
    32    10     1   ar
    33    16    12   ar
    34     9     4   ar
    35    29    24   ar
    36    31    33    1
    37    31    34    1
@<TRIPOS>MOLECULE
*****
 34 37 0 0 0
SMALL
GASTEIGER

@<TRIPOS>ATOM
      1 C          62.5363   87.9431   10.7395 C.ar    1  UNL1       -0.0004
      2 C          62.5490   89.2723   10.0446 C.ar    1  UNL1       -0.0024
      3 C          63.0973   90.4798   10.7455 C.ar    1  UNL1       -0.0002
      4 C          63.6328   90.3580   12.1414 C.ar    1  UNL1        0.0030
      5 C          64.1812   91.5656   12.8423 C.ar    1  UNL1        0.0369
      6 C          64.7167   91.4438   14.2381 C.ar    1  UNL1        0.1391
      7 C          64.7039   90.1145   14.9331 C.ar    1  UNL1        0.0369
      8 C          64.1557   88.9071   14.2321 C.ar    1  UNL1        0.0031
      9 C          63.6201   89.0288   12.8363 C.ar    1  UNL1       -0.0001
     10 C          63.0718   87.8213   12.1354 C.ar    1  UNL1       -0.0024
     11 C          61.9879   86.7355   10.0386 C.3     1  UNL1        0.1240
     12 N          62.5352   85.3742   10.3508 N.ar    1  UNL1       -0.3045
     13 C          62.2877   84.5910   11.6059 C.ar    1  UNL1        0.0983
     14 C          63.0255   83.2899   11.4935 C.ar    1  UNL1        0.1193
     15 N          63.7290   83.2689   10.1688 N.ar    1  UNL1       -0.2223
     16 C          63.4259   84.5571    9.4626 C.ar    1  UNL1        0.1788
     17 C          60.7856   85.9223    7.8838 C.3     1  UNL1        0.0197
     18 C          60.8925   86.8893    9.0256 C.3     1  UNL1        0.0827
     19 N          59.9039   88.0100    9.1543 N.3     1  UNL1       -0.2696
     20 C          59.3398   88.3619   10.4989 C.3     1  UNL1        0.0897
     21 C          59.4793   88.7789    7.9383 C.3     1  UNL1        0.0897
     22 O          65.2650   92.6513   14.9391 O.3     1  UNL1       -0.4706
     23 C          66.4757   93.3496   14.3942 C.3     1  UNL1        0.2320
     24 C          66.6936   93.4265   12.9122 C.ar    1  UNL1        0.0213
     25 C          67.3463   92.2853   12.1899 C.ar    1  UNL1       -0.0007
     26 C          67.5642   92.3622   10.7078 C.ar    1  UNL1       -0.0001
     27 C          67.1295   93.5802    9.9480 C.ar    1  UNL1        0.0045
     28 C          66.4768   94.7214   10.6703 C.ar    1  UNL1        0.0529
     29 C          66.2588   94.6445   12.1524 C.ar    1  UNL1        0.0038
     30 C          66.0420   95.9395    9.9105 C.2     1  UNL1        0.2427
     31 N          64.5864   96.2928    9.8292 N.am    1  UNL1       -0.3253
     32 O          67.0627   96.8042    9.2320 O.2     1  UNL1       -0.2704
     33 H          63.9165   95.7253   10.2745 H       1  UNL1        0.1453
     34 H          64.3010   97.0923    9.3305 H       1  UNL1        0.1453
@<TRIPOS>BOND
     1    17    18    1
     2    18    11    1
     3    11     1    1
     4     1     2   ar
     5     2     3   ar
     6     3     4   ar
     7     4     5   ar
     8     5     6   ar
     9     6    22    1
    10    22    23    1
    11    23    24    1
    12    24    25   ar
    13    25    26   ar
    14    26    27   ar
    15    27    28   ar
    16    28    30    1
    17    30    31   am
    18    30    32    2
    19    28    29   ar
    20     6     7   ar
    21     7     8   ar
    22     8     9   ar
    23     9    10   ar
    24    11    12    1
    25    12    13   ar
    26    13    14   ar
    27    14    15   ar
    28    15    16   ar
    29    18    19    1
    30    19    20    1
    31    19    21    1
    32    10     1   ar
    33    16    12   ar
    34     9     4   ar
    35    29    24   ar
    36    31    33    1
    37    31    34    1
@<TRIPOS>MOLECULE
*****
 34 37 0 0 0
SMALL
GASTEIGER

@<TRIPOS>ATOM
      1 C          62.7772   85.8420   12.0364 C.ar    1  UNL1       -0.0004
      2 C          63.1189   87.2613   12.3811 C.ar    1  UNL1       -0.0024
      3 C          62.5552   88.3875   11.5663 C.ar    1  UNL1       -0.0002
      4 C          61.6499   88.0944   10.4067 C.ar    1  UNL1        0.0030
      5 C          61.0862   89.2207    9.5919 C.ar    1  UNL1        0.0369
      6 C          60.1809   88.9275    8.4324 C.ar    1  UNL1        0.1391
      7 C          59.8392   87.5082    8.0877 C.ar    1  UNL1        0.0369
      8 C          60.4029   86.3820    8.9025 C.ar    1  UNL1        0.0031
      9 C          61.3082   86.6751   10.0620 C.ar    1  UNL1       -0.0001
     10 C          61.8719   85.5489   10.8768 C.ar    1  UNL1       -0.0024
     11 C          63.3409   84.7158   12.8512 C.3     1  UNL1        0.1240
     12 N          63.2506   83.3063   12.3461 N.ar    1  UNL1       -0.3045
     13 C          62.5404   82.1712   13.0222 C.ar    1  UNL1        0.0983
     14 C          62.7055   80.9477   12.1701 C.ar    1  UNL1        0.1193
     15 N          63.5178   81.3267   10.9674 N.ar    1  UNL1       -0.2223
     16 C          63.8546   82.7844   11.0761 C.ar    1  UNL1        0.1788
     17 C          65.4904   84.9835   14.2858 C.3     1  UNL1        0.0197
     18 C          63.9948   84.9990   14.1710 C.3     1  UNL1        0.0827
     19 N          63.1533   85.2979   15.3762 N.3     1  UNL1       -0.2696
     20 C          63.5047   86.4508   16.2692 C.3     1  UNL1        0.0897
     21 C          61.9604   84.4438   15.6885 C.3     1  UNL1        0.0897
     22 O          59.6172   90.0537    7.6176 O.3     1  UNL1       -0.4706
     23 C          59.2651   89.8336    6.1762 C.3     1  UNL1        0.2320
     24 C          59.7522   90.7921    5.1303 C.ar    1  UNL1        0.0213
     25 C          58.8070   91.7890    4.5281 C.ar    1  UNL1       -0.0007
     26 C          59.2942   92.7476    3.4822 C.ar    1  UNL1       -0.0001
     27 C          60.7265   92.7091    3.0384 C.ar    1  UNL1        0.0045
     28 C          61.6717   91.7121    3.6406 C.ar    1  UNL1        0.0529
     29 C          61.1846   90.7536    4.6865 C.ar    1  UNL1        0.0038
     30 C          63.1041   91.6736    3.1969 C.2     1  UNL1        0.2427
     31 N          63.7351   92.8930    2.5928 N.am    1  UNL1       -0.3253
     32 O          63.9054   90.4158    3.3572 O.2     1  UNL1       -0.2704
     33 H          63.2092   93.7186    2.4876 H       1  UNL1        0.1453
     34 H          64.6752   92.8678    2.3016 H       1  UNL1        0.1453
@<TRIPOS>BOND
     1    17    18    1
     2    18    11    1
     3    11     1    1
     4     1     2   ar
     5     2     3   ar
     6     3     4   ar
     7     4     5   ar
     8     5     6   ar
     9     6    22    1
    10    22    23    1
    11    23    24    1
    12    24    25   ar
    13    25    26   ar
    14    26    27   ar
    15    27    28   ar
    16    28    30    1
    17    30    31   am
    18    30    32    2
    19    28    29   ar
    20     6     7   ar
    21     7     8   ar
    22     8     9   ar
    23     9    10   ar
    24    11    12    1
    25    12    13   ar
    26    13    14   ar
    27    14    15   ar
    28    15    16   ar
    29    18    19    1
    30    19    20    1
    31    19    21    1
    32    10     1   ar
    33    16    12   ar
    34     9     4   ar
    35    29    24   ar
    36    31    33    1
    37    31    34    1
