@<TRIPOS>MOLECULE
*****
 44 49 0 0 0
SMALL
GASTEIGER

@<TRIPOS>ATOM
      1 C          59.5285   88.7818    7.5778 C.3     1  UNL1        0.1543
      2 O          59.6771   88.8248   10.5739 O.2     1  UNL1       -0.2526
      3 C          60.7442   89.4953    9.7604 C.2     1  UNL1        0.3043
      4 N          60.6699   89.4738    8.2624 N.am    1  UNL1       -0.2822
      5 N          61.8856   90.1872   10.4448 N.am    1  UNL1       -0.2641
      6 C          61.9598   90.2086   11.9428 C.3     1  UNL1        0.0967
      7 C          63.1012   90.9006   12.6274 C.3     1  UNL1        0.0418
      8 C          64.1682   91.5710   11.8138 C.3     1  UNL1        0.0848
      9 C          64.0940   91.5495   10.3158 C.3     1  UNL1        0.0418
     10 C          62.9527   90.8576    9.6313 C.3     1  UNL1        0.0967
     11 H          61.3703   89.9138    7.7284 H       1  UNL1        0.1514
     12 N          65.3096   92.2629   12.4983 N.am    1  UNL1       -0.2422
     13 C          66.3986   93.0443   11.8248 C.2     1  UNL1        0.3310
     14 O          66.5373   93.2708   10.3485 O.2     1  UNL1       -0.2501
     15 N          67.3245   93.5592   12.8867 N.am    1  UNL1       -0.1647
     16 C          66.8077   93.0962   14.2165 C.2     1  UNL1        0.0706
     17 C          67.3102   93.3005   15.6150 C.3     1  UNL1        0.0705
     18 C          66.5674   92.7037   16.7735 C.2     1  UNL1       -0.0199
     19 C          65.3222   91.9025   16.5336 C.2     1  UNL1       -0.0029
     20 C          64.8197   91.6981   15.1350 C.2     1  UNL1        0.0156
     21 C          65.5625   92.2950   13.9766 C.2     1  UNL1        0.0668
     22 C          58.6018   89.5608    6.6922 C.2     1  UNL1        0.2439
     23 O          57.1170   89.4177    6.8500 O.2     1  UNL1       -0.2731
     24 N          59.1597   90.4828    5.6489 N.am    1  UNL1       -0.2781
     25 C          58.2329   91.2618    4.7634 C.3     1  UNL1        0.0948
     26 C          58.7909   92.1838    3.7201 C.3     1  UNL1        0.0375
     27 C          60.2757   92.3269    3.5623 C.3     1  UNL1        0.0609
     28 C          61.2025   91.5479    4.4479 C.3     1  UNL1        0.0375
     29 C          60.6446   90.6259    5.4912 C.3     1  UNL1        0.0948
     30 N          60.8336   93.2489    2.5190 N.3     1  UNL1       -0.2738
     31 C          60.1556   94.5560    2.2331 C.3     1  UNL1        0.0720
     32 C          60.7136   95.4780    1.1898 C.3     1  UNL1        0.0174
     33 C          61.9496   95.0930    0.4323 C.3     1  UNL1        0.0029
     34 C          62.6277   93.7858    0.7182 C.3     1  UNL1        0.0174
     35 C          62.0698   92.8638    1.7615 C.3     1  UNL1        0.0720
     36 C          59.3140   87.3109    7.7789 C.3     1  UNL1        0.0553
     37 C          60.4616   86.4341    8.1842 C.ar    1  UNL1       -0.0198
     38 C          60.8217   86.2922    9.6333 C.ar    1  UNL1       -0.0011
     39 C          61.9693   85.4154   10.0386 C.ar    1  UNL1        0.0363
     40 C          62.7567   84.6806    8.9946 C.ar    1  UNL1        0.1337
     41 O          63.9044   83.8037    9.3998 O.3     1  UNL1       -0.5055
     42 C          62.3966   84.8225    7.5454 C.ar    1  UNL1        0.0363
     43 C          61.2490   85.6993    7.1402 C.ar    1  UNL1       -0.0011
     44 H          64.1293   83.7150   10.3051 H       1  UNL1        0.2922
@<TRIPOS>BOND
     1     2     3    2
     2     3     4   am
     3     4     1    1
     4     1    36    1
     5    36    37    1
     6    37    38   ar
     7    38    39   ar
     8    39    40   ar
     9    40    41    1
    10    40    42   ar
    11    42    43   ar
    12     1    22    1
    13    22    23    2
    14    22    24   am
    15    24    25    1
    16    25    26    1
    17    26    27    1
    18    27    30    1
    19    30    31    1
    20    31    32    1
    21    32    33    1
    22    33    34    1
    23    34    35    1
    24    27    28    1
    25    28    29    1
    26     3     5   am
    27     5     6    1
    28     6     7    1
    29     7     8    1
    30     8    12    1
    31    12    13   am
    32    13    14    2
    33    13    15    1
    34    15    16    2
    35    16    17    1
    36    17    18    1
    37    18    19    2
    38    19    20    1
    39    20    21    2
    40     8     9    1
    41     9    10    1
    42    43    37   ar
    43    29    24    1
    44    10     5    1
    45    35    30    1
    46    21    12    1
    47    21    16    1
    48     4    11    1
    49    41    44    1
@<TRIPOS>MOLECULE
*****
 44 49 0 0 0
SMALL
GASTEIGER

@<TRIPOS>ATOM
      1 C          60.4011   88.2342    8.4728 C.3     1  UNL1        0.1543
      2 O          58.0123   89.3102    7.0112 O.2     1  UNL1       -0.2526
      3 C          59.3905   89.7674    6.6348 C.2     1  UNL1        0.3043
      4 N          60.5848   89.2294    7.3656 N.am    1  UNL1       -0.2822
      5 N          59.5743   90.7626    5.5276 N.am    1  UNL1       -0.2641
      6 C          58.3799   91.3005    4.7969 C.3     1  UNL1        0.0967
      7 C          58.5636   92.2958    3.6897 C.3     1  UNL1        0.0418
      8 C          59.9417   92.7529    3.3133 C.3     1  UNL1        0.0848
      9 C          61.1362   92.2150    4.0441 C.3     1  UNL1        0.0418
     10 C          60.9524   91.2198    5.1512 C.3     1  UNL1        0.0967
     11 H          61.4893   89.5295    7.1185 H       1  UNL1        0.1514
     12 N          60.1255   93.7481    2.2062 N.am    1  UNL1       -0.2422
     13 C          60.0700   95.2408    2.3441 C.2     1  UNL1        0.3310
     14 O          59.8209   96.0002    3.6134 O.2     1  UNL1       -0.2501
     15 N          60.3073   95.8406    0.9898 N.am    1  UNL1       -0.1647
     16 C          60.5095   94.7187    0.0149 C.2     1  UNL1        0.0706
     17 C          60.7814   94.7076   -1.4601 C.3     1  UNL1        0.0705
     18 C          60.9409   93.4033   -2.1836 C.2     1  UNL1       -0.0199
     19 C          60.8286   92.1101   -1.4319 C.2     1  UNL1       -0.0029
     20 C          60.5567   92.1211    0.0432 C.2     1  UNL1        0.0156
     21 C          60.3972   93.4255    0.7666 C.2     1  UNL1        0.0668
     22 C          60.1970   88.7082    9.8811 C.2     1  UNL1        0.2439
     23 O          58.9025   88.4299   10.5859 O.2     1  UNL1       -0.2731
     24 N          61.2874   89.4606   10.5847 N.am    1  UNL1       -0.2781
     25 C          61.0832   89.9347   11.9931 C.3     1  UNL1        0.0948
     26 C          62.1736   90.6870   12.6967 C.3     1  UNL1        0.0375
     27 C          63.4681   90.9653   11.9919 C.3     1  UNL1        0.0609
     28 C          63.6723   90.4912   10.5834 C.3     1  UNL1        0.0375
     29 C          62.5819   89.7389    9.8798 C.3     1  UNL1        0.0948
     30 N          64.5585   91.7177   12.6955 N.3     1  UNL1       -0.2738
     31 C          64.9399   91.3484   14.0983 C.3     1  UNL1        0.0720
     32 C          66.0302   92.1007   14.8019 C.3     1  UNL1        0.0174
     33 C          66.7393   93.2224   14.1026 C.3     1  UNL1        0.0029
     34 C          66.3578   93.5918   12.6997 C.3     1  UNL1        0.0174
     35 C          65.2674   92.8394   11.9961 C.3     1  UNL1        0.0720
     36 C          60.4215   86.7649    8.1715 C.3     1  UNL1        0.0553
     37 C          61.4769   85.8892    8.7792 C.ar    1  UNL1       -0.0198
     38 C          61.4993   85.6601   10.2614 C.ar    1  UNL1       -0.0011
     39 C          62.5547   84.7844   10.8691 C.ar    1  UNL1        0.0363
     40 C          63.5877   84.1379    9.9945 C.ar    1  UNL1        0.1337
     41 O          64.6432   83.2622   10.6021 O.3     1  UNL1       -0.5055
     42 C          63.5653   84.3670    8.5123 C.ar    1  UNL1        0.0363
     43 C          62.5098   85.2427    7.9046 C.ar    1  UNL1       -0.0011
     44 H          64.6572   83.1191   11.5280 H       1  UNL1        0.2922
@<TRIPOS>BOND
     1     2     3    2
     2     3     4   am
     3     4     1    1
     4     1    36    1
     5    36    37    1
     6    37    38   ar
     7    38    39   ar
     8    39    40   ar
     9    40    41    1
    10    40    42   ar
    11    42    43   ar
    12     1    22    1
    13    22    23    2
    14    22    24   am
    15    24    25    1
    16    25    26    1
    17    26    27    1
    18    27    30    1
    19    30    31    1
    20    31    32    1
    21    32    33    1
    22    33    34    1
    23    34    35    1
    24    27    28    1
    25    28    29    1
    26     3     5   am
    27     5     6    1
    28     6     7    1
    29     7     8    1
    30     8    12    1
    31    12    13   am
    32    13    14    2
    33    13    15    1
    34    15    16    2
    35    16    17    1
    36    17    18    1
    37    18    19    2
    38    19    20    1
    39    20    21    2
    40     8     9    1
    41     9    10    1
    42    43    37   ar
    43    29    24    1
    44    10     5    1
    45    35    30    1
    46    21    12    1
    47    21    16    1
    48     4    11    1
    49    41    44    1
@<TRIPOS>MOLECULE
*****
 44 49 0 0 0
SMALL
GASTEIGER

@<TRIPOS>ATOM
      1 C          60.0523   89.2319    7.7564 C.3     1  UNL1        0.1543
      2 O          58.2386   90.8739    6.0202 O.2     1  UNL1       -0.2526
      3 C          59.6954   90.7560    5.6828 C.2     1  UNL1        0.3043
      4 N          60.6022   89.9350    6.5509 N.am    1  UNL1       -0.2822
      5 N          60.2453   91.4592    4.4773 N.am    1  UNL1       -0.2641
      6 C          59.3384   92.2801    3.6093 C.3     1  UNL1        0.0967
      7 C          59.8883   92.9833    2.4038 C.3     1  UNL1        0.0418
      8 C          61.3451   92.8654    2.0664 C.3     1  UNL1        0.0848
      9 C          62.2521   92.0444    2.9345 C.3     1  UNL1        0.0418
     10 C          61.7021   91.3413    4.1399 C.3     1  UNL1        0.0967
     11 H          61.5584   89.8577    6.3294 H       1  UNL1        0.1514
     12 N          61.8951   93.5686    0.8609 N.am    1  UNL1       -0.2422
     13 C          61.3924   93.4312   -0.5457 C.2     1  UNL1        0.3310
     14 O          60.2515   92.5665   -0.9937 O.2     1  UNL1       -0.2501
     15 N          62.2309   94.3102   -1.4256 N.am    1  UNL1       -0.1647
     16 C          63.2519   94.9909   -0.5628 C.2     1  UNL1        0.0706
     17 C          64.3437   95.9689   -0.8813 C.3     1  UNL1        0.0705
     18 C          65.2279   96.4886    0.2132 C.2     1  UNL1       -0.0199
     19 C          65.0204   96.0302    1.6263 C.2     1  UNL1       -0.0029
     20 C          63.9286   95.0522    1.9449 C.2     1  UNL1        0.0156
     21 C          63.0443   94.5326    0.8503 C.2     1  UNL1        0.0668
     22 C          60.0122   87.7330    7.7970 C.2     1  UNL1        0.2439
     23 O          59.1821   86.9778    6.8017 O.2     1  UNL1       -0.2731
     24 N          60.8021   86.9893    8.8329 N.am    1  UNL1       -0.2781
     25 C          60.7619   85.4904    8.8734 C.3     1  UNL1        0.0948
     26 C          61.5518   84.7468    9.9093 C.3     1  UNL1        0.0375
     27 C          62.3819   85.5020   10.9046 C.3     1  UNL1        0.0609
     28 C          62.4221   87.0010   10.8640 C.3     1  UNL1        0.0375
     29 C          61.6322   87.7447    9.8282 C.3     1  UNL1        0.0948
     30 N          63.1718   84.7583   11.9404 N.3     1  UNL1       -0.2738
     31 C          63.6256   83.3540   11.6723 C.3     1  UNL1        0.0720
     32 C          64.4155   82.6104   12.7082 C.3     1  UNL1        0.0174
     33 C          64.7516   83.2710   14.0122 C.3     1  UNL1        0.0029
     34 C          64.2978   84.6754   14.2803 C.3     1  UNL1        0.0174
     35 C          63.5079   85.4191   13.2445 C.3     1  UNL1        0.0720
     36 C          59.5426   90.0277    8.9212 C.3     1  UNL1        0.0553
     37 C          60.3641   90.1377   10.1714 C.ar    1  UNL1       -0.0198
     38 C          59.7834   89.7195   11.4897 C.ar    1  UNL1       -0.0011
     39 C          60.6049   89.8294   12.7399 C.ar    1  UNL1        0.0363
     40 C          62.0071   90.3577   12.6717 C.ar    1  UNL1        0.1337
     41 O          62.8288   90.4677   13.9219 O.3     1  UNL1       -0.5055
     42 C          62.5879   90.7759   11.3535 C.ar    1  UNL1        0.0363
     43 C          61.7663   90.6659   10.1033 C.ar    1  UNL1       -0.0011
     44 H          62.4660   90.2064   14.7454 H       1  UNL1        0.2922
@<TRIPOS>BOND
     1     2     3    2
     2     3     4   am
     3     4     1    1
     4     1    36    1
     5    36    37    1
     6    37    38   ar
     7    38    39   ar
     8    39    40   ar
     9    40    41    1
    10    40    42   ar
    11    42    43   ar
    12     1    22    1
    13    22    23    2
    14    22    24   am
    15    24    25    1
    16    25    26    1
    17    26    27    1
    18    27    30    1
    19    30    31    1
    20    31    32    1
    21    32    33    1
    22    33    34    1
    23    34    35    1
    24    27    28    1
    25    28    29    1
    26     3     5   am
    27     5     6    1
    28     6     7    1
    29     7     8    1
    30     8    12    1
    31    12    13   am
    32    13    14    2
    33    13    15    1
    34    15    16    2
    35    16    17    1
    36    17    18    1
    37    18    19    2
    38    19    20    1
    39    20    21    2
    40     8     9    1
    41     9    10    1
    42    43    37   ar
    43    29    24    1
    44    10     5    1
    45    35    30    1
    46    21    12    1
    47    21    16    1
    48     4    11    1
    49    41    44    1
@<TRIPOS>MOLECULE
*****
 44 49 0 0 0
SMALL
GASTEIGER

@<TRIPOS>ATOM
      1 C          60.1535   89.1437    7.9364 C.3     1  UNL1        0.1543
      2 O          58.1799   90.6525    6.2545 O.2     1  UNL1       -0.2526
      3 C          59.6289   90.6255    5.8678 C.2     1  UNL1        0.3043
      4 N          60.6157   89.8711    6.7087 N.am    1  UNL1       -0.2822
      5 N          60.0912   91.3530    4.6401 N.am    1  UNL1       -0.2641
      6 C          59.1044   92.1073    3.7992 C.3     1  UNL1        0.0967
      7 C          59.5667   92.8348    2.5715 C.3     1  UNL1        0.0418
      8 C          61.0157   92.8079    2.1849 C.3     1  UNL1        0.0848
      9 C          62.0026   92.0535    3.0258 C.3     1  UNL1        0.0418
     10 C          61.5403   91.3260    4.2534 C.3     1  UNL1        0.0967
     11 H          61.5667   89.8535    6.4549 H       1  UNL1        0.1514
     12 N          61.4780   93.5353    0.9572 N.am    1  UNL1       -0.2422
     13 C          62.6672   94.4451    0.8668 C.2     1  UNL1        0.3310
     14 O          63.6029   94.7871    1.9882 O.2     1  UNL1       -0.2501
     15 N          62.7565   94.9528   -0.5419 N.am    1  UNL1       -0.1647
     16 C          61.6224   94.3568   -1.3221 C.2     1  UNL1        0.0706
     17 C          61.2072   94.4986   -2.7564 C.3     1  UNL1        0.0705
     18 C          60.0018   93.7644   -3.2644 C.2     1  UNL1       -0.0199
     19 C          59.2117   92.8884   -2.3380 C.2     1  UNL1       -0.0029
     20 C          59.6269   92.7465   -0.9035 C.2     1  UNL1        0.0156
     21 C          60.8323   93.4808   -0.3957 C.2     1  UNL1        0.0668
     22 C          60.1461   87.6439    7.9613 C.2     1  UNL1        0.2439
     23 O          59.3722   86.8805    6.9278 O.2     1  UNL1       -0.2731
     24 N          60.9127   86.9076    9.0197 N.am    1  UNL1       -0.2781
     25 C          60.9053   85.4078    9.0445 C.3     1  UNL1        0.0948
     26 C          61.6718   84.6714   10.1028 C.3     1  UNL1        0.0375
     27 C          62.4458   85.4348   11.1364 C.3     1  UNL1        0.0609
     28 C          62.4532   86.9347   11.1116 C.3     1  UNL1        0.0375
     29 C          61.6866   87.6710   10.0532 C.3     1  UNL1        0.0948
     30 N          63.2123   84.6985   12.1948 N.3     1  UNL1       -0.2738
     31 C          63.6604   85.4167   13.4330 C.3     1  UNL1        0.0720
     32 C          64.4269   84.6804   14.4914 C.3     1  UNL1        0.0174
     33 C          64.7455   83.2256   14.3115 C.3     1  UNL1        0.0029
     34 C          64.2974   82.5074   13.0732 C.3     1  UNL1        0.0174
     35 C          63.5309   83.2437   12.0148 C.3     1  UNL1        0.0720
     36 C          59.6986   89.9160    9.1391 C.3     1  UNL1        0.0553
     37 C          60.6603   90.2029   10.2540 C.ar    1  UNL1       -0.0198
     38 C          62.0228   90.7501    9.9471 C.ar    1  UNL1       -0.0011
     39 C          62.9844   91.0370   11.0619 C.ar    1  UNL1        0.0363
     40 C          62.5836   90.7765   12.4837 C.ar    1  UNL1        0.1337
     41 O          63.5452   91.0634   13.5986 O.3     1  UNL1       -0.5055
     42 C          61.2211   90.2293   12.7906 C.ar    1  UNL1        0.0363
     43 C          60.2594   89.9425   11.6758 C.ar    1  UNL1       -0.0011
     44 H          64.3963   91.4052   13.4069 H       1  UNL1        0.2922
@<TRIPOS>BOND
     1     2     3    2
     2     3     4   am
     3     4     1    1
     4     1    36    1
     5    36    37    1
     6    37    38   ar
     7    38    39   ar
     8    39    40   ar
     9    40    41    1
    10    40    42   ar
    11    42    43   ar
    12     1    22    1
    13    22    23    2
    14    22    24   am
    15    24    25    1
    16    25    26    1
    17    26    27    1
    18    27    30    1
    19    30    31    1
    20    31    32    1
    21    32    33    1
    22    33    34    1
    23    34    35    1
    24    27    28    1
    25    28    29    1
    26     3     5   am
    27     5     6    1
    28     6     7    1
    29     7     8    1
    30     8    12    1
    31    12    13   am
    32    13    14    2
    33    13    15    1
    34    15    16    2
    35    16    17    1
    36    17    18    1
    37    18    19    2
    38    19    20    1
    39    20    21    2
    40     8     9    1
    41     9    10    1
    42    43    37   ar
    43    29    24    1
    44    10     5    1
    45    35    30    1
    46    21    12    1
    47    21    16    1
    48     4    11    1
    49    41    44    1
