@<TRIPOS>MOLECULE
*****
 28 30 0 0 0
SMALL
GASTEIGER

@<TRIPOS>ATOM
      1 C          67.1794   93.0301    9.7796 C.3     1  UNL1        0.0521
      2 C          66.3724   92.6019   10.9694 C.ar    1  UNL1        0.0606
      3 C          65.0044   92.0174   10.7768 C.ar    1  UNL1        0.0290
      4 C          64.1974   91.5892   11.9665 C.ar    1  UNL1        0.0475
      5 C          64.7584   91.7456   13.3489 C.ar    1  UNL1        0.0309
      6 C          63.9514   91.3174   14.5385 C.ar    1  UNL1        0.0027
      7 C          64.5123   91.4737   15.9209 C.ar    1  UNL1        0.0003
      8 C          65.8803   92.0582   16.1135 C.ar    1  UNL1        0.0060
      9 C          66.6873   92.4863   14.9238 C.ar    1  UNL1        0.0708
     10 C          66.1263   92.3300   13.5415 C.ar    1  UNL1        0.0864
     11 N          66.9333   92.7582   12.3517 N.ar    1  UNL1       -0.2494
     12 C          68.0552   93.0708   15.1165 C.2     1  UNL1        0.2442
     13 N          69.2282   92.4923   14.3821 N.am    1  UNL1       -0.3253
     14 O          68.2501   94.2338   16.0435 O.2     1  UNL1       -0.2703
     15 H          69.1003   91.7290   13.7737 H       1  UNL1        0.1453
     16 H          70.1260   92.8759   14.5086 H       1  UNL1        0.1453
     17 N          62.8295   91.0048   11.7738 N.pl3   1  UNL1       -0.3289
     18 H          62.1670   91.0524   12.5005 H       1  UNL1        0.1471
     19 C          62.4709   90.3477   10.4740 C.3     1  UNL1        0.1174
     20 C          62.0716   88.9020   10.4494 C.ar    1  UNL1        0.0363
     21 C          62.6858   87.9377   11.4206 C.ar    1  UNL1        0.1386
     22 F          63.6992   88.4191   12.4161 F       1  UNL1       -0.2044
     23 C          62.2866   86.4920   11.3960 C.ar    1  UNL1        0.0303
     24 C          61.2731   86.0107   10.4004 C.ar    1  UNL1        0.0145
     25 C          60.6590   86.9749    9.4293 C.ar    1  UNL1        0.0681
     26 CL         59.6455   86.4935    8.4337 Cl      1  UNL1       -0.0814
     27 C          61.0582   88.4206    9.4539 C.ar    1  UNL1        0.0680
     28 CL         60.4440   89.3849    8.4827 Cl      1  UNL1       -0.0816
@<TRIPOS>BOND
     1     1     2    1
     2     2     3   ar
     3     3     4   ar
     4     4    17    1
     5    17    19    1
     6    19    20    1
     7    20    21   ar
     8    21    22    1
     9    21    23   ar
    10    23    24   ar
    11    24    25   ar
    12    25    26    1
    13    25    27   ar
    14    27    28    1
    15     4     5   ar
    16     5     6   ar
    17     6     7   ar
    18     7     8   ar
    19     8     9   ar
    20     9    12    1
    21    12    13   am
    22    12    14    2
    23     9    10   ar
    24    10    11   ar
    25    11     2   ar
    26    27    20   ar
    27    10     5   ar
    28    17    18    1
    29    13    15    1
    30    13    16    1
@<TRIPOS>MOLECULE
*****
 28 30 0 0 0
SMALL
GASTEIGER

@<TRIPOS>ATOM
      1 C          63.3680   89.4684   16.2637 C.3     1  UNL1        0.0521
      2 C          63.7574   90.1646   14.9934 C.ar    1  UNL1        0.0606
      3 C          62.9936   89.9016   13.7295 C.ar    1  UNL1        0.0290
      4 C          63.3830   90.5977   12.4592 C.ar    1  UNL1        0.0475
      5 C          64.5362   91.5570   12.4527 C.ar    1  UNL1        0.0309
      6 C          64.9255   92.2532   11.1824 C.ar    1  UNL1        0.0027
      7 C          66.0787   93.2124   11.1760 C.ar    1  UNL1        0.0003
      8 C          66.8425   93.4755   12.4399 C.ar    1  UNL1        0.0060
      9 C          66.4531   92.7793   13.7102 C.ar    1  UNL1        0.0708
     10 C          65.3000   91.8201   13.7166 C.ar    1  UNL1        0.0864
     11 N          64.9106   91.1238   14.9870 N.ar    1  UNL1       -0.2494
     12 C          67.2169   93.0423   14.9741 C.2     1  UNL1        0.2442
     13 N          66.4858   93.1891   16.2755 N.am    1  UNL1       -0.3253
     14 O          68.7119   93.1587   14.9365 O.2     1  UNL1       -0.2703
     15 H          65.5045   93.1127   16.3002 H       1  UNL1        0.1453
     16 H          66.9871   93.3617   17.1051 H       1  UNL1        0.1453
     17 N          62.6192   90.3347   11.1953 N.pl3   1  UNL1       -0.3289
     18 H          62.9071   90.7503   10.3506 H       1  UNL1        0.1471
     19 C          61.4166   89.4384   11.2184 C.3     1  UNL1        0.1174
     20 C          61.4608   88.1062   10.5304 C.ar    1  UNL1        0.0363
     21 C          62.3344   87.0124   11.0692 C.ar    1  UNL1        0.1386
     22 F          63.1638   87.2507   12.2961 F       1  UNL1       -0.2044
     23 C          62.3785   85.6802   10.3812 C.ar    1  UNL1        0.0303
     24 C          61.5490   85.4419    9.1543 C.ar    1  UNL1        0.0145
     25 C          60.6755   86.5358    8.6155 C.ar    1  UNL1        0.0681
     26 CL         59.8460   86.2975    7.3886 Cl      1  UNL1       -0.0814
     27 C          60.6313   87.8679    9.3035 C.ar    1  UNL1        0.0680
     28 CL         59.7577   88.9618    8.7647 Cl      1  UNL1       -0.0816
@<TRIPOS>BOND
     1     1     2    1
     2     2     3   ar
     3     3     4   ar
     4     4    17    1
     5    17    19    1
     6    19    20    1
     7    20    21   ar
     8    21    22    1
     9    21    23   ar
    10    23    24   ar
    11    24    25   ar
    12    25    26    1
    13    25    27   ar
    14    27    28    1
    15     4     5   ar
    16     5     6   ar
    17     6     7   ar
    18     7     8   ar
    19     8     9   ar
    20     9    12    1
    21    12    13   am
    22    12    14    2
    23     9    10   ar
    24    10    11   ar
    25    11     2   ar
    26    27    20   ar
    27    10     5   ar
    28    17    18    1
    29    13    15    1
    30    13    16    1
@<TRIPOS>MOLECULE
*****
 28 30 0 0 0
SMALL
GASTEIGER

@<TRIPOS>ATOM
      1 C          63.3627   89.5335   16.1266 C.3     1  UNL1        0.0521
      2 C          63.6604   90.1704   14.8015 C.ar    1  UNL1        0.0606
      3 C          62.7411   89.9453   13.6378 C.ar    1  UNL1        0.0290
      4 C          63.0388   90.5821   12.3127 C.ar    1  UNL1        0.0475
      5 C          64.2557   91.4441   12.1513 C.ar    1  UNL1        0.0309
      6 C          64.5533   92.0810   10.8262 C.ar    1  UNL1        0.0027
      7 C          65.7702   92.9429   10.6649 C.ar    1  UNL1        0.0003
      8 C          66.6895   93.1681   11.8286 C.ar    1  UNL1        0.0060
      9 C          66.3919   92.5313   13.1537 C.ar    1  UNL1        0.0708
     10 C          65.1750   91.6693   13.3150 C.ar    1  UNL1        0.0864
     11 N          64.8773   91.0324   14.6401 N.ar    1  UNL1       -0.2494
     12 C          67.3112   92.7565   14.3174 C.2     1  UNL1        0.2442
     13 N          66.7603   93.2422   15.6252 N.am    1  UNL1       -0.3253
     14 O          68.7813   92.4959   14.1732 O.2     1  UNL1       -0.2703
     15 H          65.7954   93.4133   15.7199 H       1  UNL1        0.1453
     16 H          67.3637   93.3900   16.3890 H       1  UNL1        0.1453
     17 N          62.1195   90.3569   11.1490 N.pl3   1  UNL1       -0.3289
     18 H          62.1821   90.9335   10.3535 H       1  UNL1        0.1471
     19 C          61.1048   89.2532   11.1973 C.3     1  UNL1        0.1174
     20 C          61.2251   88.0826   10.2671 C.ar    1  UNL1        0.0363
     21 C          60.4661   88.0717    8.9733 C.ar    1  UNL1        0.1386
     22 F          59.5869   89.2314    8.6097 F       1  UNL1       -0.2044
     23 C          60.5864   86.9011    8.0431 C.ar    1  UNL1        0.0303
     24 C          61.4656   85.7414    8.4068 C.ar    1  UNL1        0.0145
     25 C          62.2245   85.7524    9.7006 C.ar    1  UNL1        0.0681
     26 CL         63.1037   84.5927   10.0642 Cl      1  UNL1       -0.0814
     27 C          62.1043   86.9230   10.6307 C.ar    1  UNL1        0.0680
     28 CL         62.8632   86.9339   11.9246 Cl      1  UNL1       -0.0816
@<TRIPOS>BOND
     1     1     2    1
     2     2     3   ar
     3     3     4   ar
     4     4    17    1
     5    17    19    1
     6    19    20    1
     7    20    21   ar
     8    21    22    1
     9    21    23   ar
    10    23    24   ar
    11    24    25   ar
    12    25    26    1
    13    25    27   ar
    14    27    28    1
    15     4     5   ar
    16     5     6   ar
    17     6     7   ar
    18     7     8   ar
    19     8     9   ar
    20     9    12    1
    21    12    13   am
    22    12    14    2
    23     9    10   ar
    24    10    11   ar
    25    11     2   ar
    26    27    20   ar
    27    10     5   ar
    28    17    18    1
    29    13    15    1
    30    13    16    1
@<TRIPOS>MOLECULE
*****
 28 30 0 0 0
SMALL
GASTEIGER

@<TRIPOS>ATOM
      1 C          61.2641   86.3331    9.4743 C.3     1  UNL1        0.0521
      2 C          62.0192   86.8823   10.6483 C.ar    1  UNL1        0.0606
      3 C          62.4326   85.9720   11.7666 C.ar    1  UNL1        0.0290
      4 C          63.1876   86.5212   12.9405 C.ar    1  UNL1        0.0475
      5 C          63.5294   87.9808   12.9963 C.ar    1  UNL1        0.0309
      6 C          64.2844   88.5299   14.1702 C.ar    1  UNL1        0.0027
      7 C          64.6262   89.9894   14.2259 C.ar    1  UNL1        0.0003
      8 C          64.2129   90.8997   13.1076 C.ar    1  UNL1        0.0060
      9 C          63.4578   90.3505   11.9336 C.ar    1  UNL1        0.0708
     10 C          63.1161   88.8910   11.8780 C.ar    1  UNL1        0.0864
     11 N          62.3610   88.3418   10.7040 N.ar    1  UNL1       -0.2494
     12 C          63.0445   91.2608   10.8154 C.2     1  UNL1        0.2442
     13 N          61.6860   91.1185   10.1956 N.am    1  UNL1       -0.3253
     14 O          63.9897   92.3133   10.3168 O.2     1  UNL1       -0.2703
     15 H          61.0656   90.4276   10.5228 H       1  UNL1        0.1453
     16 H          61.4147   91.7159    9.4617 H       1  UNL1        0.1453
     17 N          63.6009   85.6109   14.0588 N.pl3   1  UNL1       -0.3289
     18 H          63.3778   85.8418   14.9895 H       1  UNL1        0.1471
     19 C          64.3541   84.3489   13.7591 C.3     1  UNL1        0.1174
     20 C          63.6075   83.0890   13.4346 C.ar    1  UNL1        0.0363
     21 C          62.7246   82.4533   14.4673 C.ar    1  UNL1        0.1386
     22 F          62.5882   83.0775   15.8244 F       1  UNL1       -0.2044
     23 C          61.9780   81.1934   14.1428 C.ar    1  UNL1        0.0303
     24 C          62.1144   80.5692   12.7856 C.ar    1  UNL1        0.0145
     25 C          62.9973   81.2049   11.7530 C.ar    1  UNL1        0.0681
     26 CL         63.1337   80.5807   10.3959 Cl      1  UNL1       -0.0814
     27 C          63.7439   82.4648   12.0775 C.ar    1  UNL1        0.0680
     28 CL         64.6268   83.1005   11.0449 Cl      1  UNL1       -0.0816
@<TRIPOS>BOND
     1     1     2    1
     2     2     3   ar
     3     3     4   ar
     4     4    17    1
     5    17    19    1
     6    19    20    1
     7    20    21   ar
     8    21    22    1
     9    21    23   ar
    10    23    24   ar
    11    24    25   ar
    12    25    26    1
    13    25    27   ar
    14    27    28    1
    15     4     5   ar
    16     5     6   ar
    17     6     7   ar
    18     7     8   ar
    19     8     9   ar
    20     9    12    1
    21    12    13   am
    22    12    14    2
    23     9    10   ar
    24    10    11   ar
    25    11     2   ar
    26    27    20   ar
    27    10     5   ar
    28    17    18    1
    29    13    15    1
    30    13    16    1
@<TRIPOS>MOLECULE
*****
 28 30 0 0 0
SMALL
GASTEIGER

@<TRIPOS>ATOM
      1 C          61.1511   86.2893    9.1959 C.3     1  UNL1        0.0521
      2 C          61.9112   86.2035   10.4862 C.ar    1  UNL1        0.0606
      3 C          62.3734   87.4565   11.1691 C.ar    1  UNL1        0.0290
      4 C          63.1335   87.3708   12.4594 C.ar    1  UNL1        0.0475
      5 C          63.4312   86.0320   13.0670 C.ar    1  UNL1        0.0309
      6 C          64.1913   85.9463   14.3573 C.ar    1  UNL1        0.0027
      7 C          64.4890   84.6076   14.9648 C.ar    1  UNL1        0.0003
      8 C          64.0267   83.3546   14.2820 C.ar    1  UNL1        0.0060
      9 C          63.2667   83.4403   12.9916 C.ar    1  UNL1        0.0708
     10 C          62.9690   84.7790   12.3841 C.ar    1  UNL1        0.0864
     11 N          62.2089   84.8648   11.0938 N.ar    1  UNL1       -0.2494
     12 C          62.8044   82.1873   12.3088 C.2     1  UNL1        0.2442
     13 N          63.3043   81.8540   10.9344 N.am    1  UNL1       -0.3253
     14 O          61.8423   81.2675   13.0004 O.2     1  UNL1       -0.2703
     15 H          63.9358   82.4576   10.4805 H       1  UNL1        0.1453
     16 H          63.0009   81.0316   10.4863 H       1  UNL1        0.1453
     17 N          63.5957   88.6238   13.1422 N.pl3   1  UNL1       -0.3289
     18 H          64.2421   88.5710   13.8829 H       1  UNL1        0.1471
     19 C          63.0732   89.9573   12.6965 C.3     1  UNL1        0.1174
     20 C          64.0290   91.0660   12.3690 C.ar    1  UNL1        0.0363
     21 C          64.1047   91.6023   10.9702 C.ar    1  UNL1        0.1386
     22 F          63.2246   91.0299    9.8988 F       1  UNL1       -0.2044
     23 C          65.0604   92.7111   10.6427 C.ar    1  UNL1        0.0303
     24 C          65.9405   93.2835   11.7141 C.ar    1  UNL1        0.0145
     25 C          65.8648   92.7472   13.1129 C.ar    1  UNL1        0.0681
     26 CL         66.7450   93.3196   14.1843 Cl      1  UNL1       -0.0814
     27 C          64.9091   91.6385   13.4403 C.ar    1  UNL1        0.0680
     28 CL         64.8334   91.1022   14.8392 Cl      1  UNL1       -0.0816
@<TRIPOS>BOND
     1     1     2    1
     2     2     3   ar
     3     3     4   ar
     4     4    17    1
     5    17    19    1
     6    19    20    1
     7    20    21   ar
     8    21    22    1
     9    21    23   ar
    10    23    24   ar
    11    24    25   ar
    12    25    26    1
    13    25    27   ar
    14    27    28    1
    15     4     5   ar
    16     5     6   ar
    17     6     7   ar
    18     7     8   ar
    19     8     9   ar
    20     9    12    1
    21    12    13   am
    22    12    14    2
    23     9    10   ar
    24    10    11   ar
    25    11     2   ar
    26    27    20   ar
    27    10     5   ar
    28    17    18    1
    29    13    15    1
    30    13    16    1
@<TRIPOS>MOLECULE
*****
 28 30 0 0 0
SMALL
GASTEIGER

@<TRIPOS>ATOM
      1 C          68.2553   93.4291   15.6947 C.3     1  UNL1        0.0521
      2 C          67.1894   92.8743   14.7968 C.ar    1  UNL1        0.0606
      3 C          66.2320   91.8436   15.3174 C.ar    1  UNL1        0.0290
      4 C          65.1661   91.2887   14.4196 C.ar    1  UNL1        0.0475
      5 C          65.0577   91.7645   13.0012 C.ar    1  UNL1        0.0309
      6 C          63.9918   91.2097   12.1034 C.ar    1  UNL1        0.0027
      7 C          63.8834   91.6855   10.6850 C.ar    1  UNL1        0.0003
      8 C          64.8409   92.7162   10.1644 C.ar    1  UNL1        0.0060
      9 C          65.9067   93.2710   11.0622 C.ar    1  UNL1        0.0708
     10 C          66.0151   92.7952   12.4806 C.ar    1  UNL1        0.0864
     11 N          67.0810   93.3501   13.3784 N.ar    1  UNL1       -0.2494
     12 C          66.8641   94.3017   10.5416 C.2     1  UNL1        0.2442
     13 N          68.0565   93.8787    9.7359 N.am    1  UNL1       -0.3253
     14 O          66.6292   95.7555   10.8267 O.2     1  UNL1       -0.2703
     15 H          68.2108   92.9245    9.5488 H       1  UNL1        0.1453
     16 H          68.6849   94.5551    9.3943 H       1  UNL1        0.1453
     17 N          64.2087   90.2580   14.9402 N.pl3   1  UNL1       -0.3289
     18 H          63.3993   90.5386   15.4254 H       1  UNL1        0.1471
     19 C          64.4844   88.7999   14.7215 C.3     1  UNL1        0.1174
     20 C          63.8242   87.7729   15.5928 C.ar    1  UNL1        0.0363
     21 C          63.2366   88.1752   16.9130 C.ar    1  UNL1        0.1386
     22 F          63.3092   89.6046   17.3619 F       1  UNL1       -0.2044
     23 C          62.5763   87.1482   17.7843 C.ar    1  UNL1        0.0303
     24 C          62.5036   85.7187   17.3354 C.ar    1  UNL1        0.0145
     25 C          63.0912   85.3164   16.0152 C.ar    1  UNL1        0.0681
     26 CL         63.0186   83.8869   15.5663 Cl      1  UNL1       -0.0814
     27 C          63.7515   86.3435   15.1440 C.ar    1  UNL1        0.0680
     28 CL         64.3391   85.9411   13.8237 Cl      1  UNL1       -0.0816
@<TRIPOS>BOND
     1     1     2    1
     2     2     3   ar
     3     3     4   ar
     4     4    17    1
     5    17    19    1
     6    19    20    1
     7    20    21   ar
     8    21    22    1
     9    21    23   ar
    10    23    24   ar
    11    24    25   ar
    12    25    26    1
    13    25    27   ar
    14    27    28    1
    15     4     5   ar
    16     5     6   ar
    17     6     7   ar
    18     7     8   ar
    19     8     9   ar
    20     9    12    1
    21    12    13   am
    22    12    14    2
    23     9    10   ar
    24    10    11   ar
    25    11     2   ar
    26    27    20   ar
    27    10     5   ar
    28    17    18    1
    29    13    15    1
    30    13    16    1
@<TRIPOS>MOLECULE
*****
 28 30 0 0 0
SMALL
GASTEIGER

@<TRIPOS>ATOM
      1 C          61.3294   86.3668    9.0840 C.3     1  UNL1        0.0521
      2 C          62.0366   86.2331   10.4001 C.ar    1  UNL1        0.0606
      3 C          62.3892   87.4585   11.1899 C.ar    1  UNL1        0.0290
      4 C          63.0964   87.3248   12.5060 C.ar    1  UNL1        0.0475
      5 C          63.4509   85.9656   13.0323 C.ar    1  UNL1        0.0309
      6 C          64.1580   85.8318   14.3483 C.ar    1  UNL1        0.0027
      7 C          64.5124   84.4727   14.8745 C.ar    1  UNL1        0.0003
      8 C          64.1597   83.2472   14.0847 C.ar    1  UNL1        0.0060
      9 C          63.4526   83.3809   12.7686 C.ar    1  UNL1        0.0708
     10 C          63.0982   84.7401   12.2424 C.ar    1  UNL1        0.0864
     11 N          62.3910   84.8739   10.9263 N.ar    1  UNL1       -0.2494
     12 C          63.0999   82.1555   11.9788 C.2     1  UNL1        0.2442
     13 N          63.5666   82.0176   10.5600 N.am    1  UNL1       -0.3253
     14 O          62.2805   81.0678   12.6078 O.2     1  UNL1       -0.2703
     15 H          64.1044   82.7314   10.1471 H       1  UNL1        0.1453
     16 H          63.3351   81.2133   10.0416 H       1  UNL1        0.1453
     17 N          63.4491   88.5503   13.2958 N.pl3   1  UNL1       -0.3289
     18 H          63.8731   88.4610   14.1798 H       1  UNL1        0.1471
     19 C          63.1556   89.9117   12.7388 C.3     1  UNL1        0.1174
     20 C          64.1999   90.9869   12.7969 C.ar    1  UNL1        0.0363
     21 C          64.9676   91.2191   14.0646 C.ar    1  UNL1        0.1386
     22 F          64.6910   90.3761   15.2740 F       1  UNL1       -0.2044
     23 C          66.0120   92.2942   14.1227 C.ar    1  UNL1        0.0303
     24 C          66.2886   93.1373   12.9131 C.ar    1  UNL1        0.0145
     25 C          65.5209   92.9051   11.6456 C.ar    1  UNL1        0.0681
     26 CL         65.7976   93.7481   10.4361 Cl      1  UNL1       -0.0814
     27 C          64.4766   91.8299   11.5875 C.ar    1  UNL1        0.0680
     28 CL         63.7089   91.5977   10.3199 Cl      1  UNL1       -0.0816
@<TRIPOS>BOND
     1     1     2    1
     2     2     3   ar
     3     3     4   ar
     4     4    17    1
     5    17    19    1
     6    19    20    1
     7    20    21   ar
     8    21    22    1
     9    21    23   ar
    10    23    24   ar
    11    24    25   ar
    12    25    26    1
    13    25    27   ar
    14    27    28    1
    15     4     5   ar
    16     5     6   ar
    17     6     7   ar
    18     7     8   ar
    19     8     9   ar
    20     9    12    1
    21    12    13   am
    22    12    14    2
    23     9    10   ar
    24    10    11   ar
    25    11     2   ar
    26    27    20   ar
    27    10     5   ar
    28    17    18    1
    29    13    15    1
    30    13    16    1
@<TRIPOS>MOLECULE
*****
 28 30 0 0 0
SMALL
GASTEIGER

@<TRIPOS>ATOM
      1 C          61.2400   85.9315    9.6405 C.3     1  UNL1        0.0521
      2 C          61.9951   86.6069   10.7468 C.ar    1  UNL1        0.0606
      3 C          62.5409   85.7972   11.8854 C.ar    1  UNL1        0.0290
      4 C          63.2959   86.4725   12.9917 C.ar    1  UNL1        0.0475
      5 C          63.5052   87.9576   12.9593 C.ar    1  UNL1        0.0309
      6 C          64.2602   88.6329   14.0656 C.ar    1  UNL1        0.0027
      7 C          64.4694   90.1178   14.0332 C.ar    1  UNL1        0.0003
      8 C          63.9236   90.9275   12.8945 C.ar    1  UNL1        0.0060
      9 C          63.1685   90.2522   11.7883 C.ar    1  UNL1        0.0708
     10 C          62.9593   88.7672   11.8207 C.ar    1  UNL1        0.0864
     11 N          62.2043   88.0918   10.7144 N.ar    1  UNL1       -0.2494
     12 C          62.6227   91.0618   10.6496 C.2     1  UNL1        0.2442
     13 N          61.1950   90.8893   10.2233 N.am    1  UNL1       -0.3253
     14 O          63.5046   92.0441    9.9373 O.2     1  UNL1       -0.2703
     15 H          60.6162   90.2446   10.6908 H       1  UNL1        0.1453
     16 H          60.8368   91.4207    9.4759 H       1  UNL1        0.1453
     17 N          63.8418   85.6629   14.1304 N.pl3   1  UNL1       -0.3289
     18 H          63.7348   85.9806   15.0560 H       1  UNL1        0.1471
     19 C          64.5505   84.3692   13.8587 C.3     1  UNL1        0.1174
     20 C          63.8011   83.2139   13.2641 C.ar    1  UNL1        0.0363
     21 C          64.1381   82.7317   11.8842 C.ar    1  UNL1        0.1386
     22 F          65.2245   83.4048   11.0990 F       1  UNL1       -0.2044
     23 C          63.3886   81.5764   11.2896 C.ar    1  UNL1        0.0303
     24 C          62.3021   80.9032   12.0749 C.ar    1  UNL1        0.0145
     25 C          61.9652   81.3854   13.4547 C.ar    1  UNL1        0.0681
     26 CL         60.8787   80.7123   14.2400 Cl      1  UNL1       -0.0814
     27 C          62.7147   82.5407   14.0493 C.ar    1  UNL1        0.0680
     28 CL         62.3777   83.0229   15.4292 Cl      1  UNL1       -0.0816
@<TRIPOS>BOND
     1     1     2    1
     2     2     3   ar
     3     3     4   ar
     4     4    17    1
     5    17    19    1
     6    19    20    1
     7    20    21   ar
     8    21    22    1
     9    21    23   ar
    10    23    24   ar
    11    24    25   ar
    12    25    26    1
    13    25    27   ar
    14    27    28    1
    15     4     5   ar
    16     5     6   ar
    17     6     7   ar
    18     7     8   ar
    19     8     9   ar
    20     9    12    1
    21    12    13   am
    22    12    14    2
    23     9    10   ar
    24    10    11   ar
    25    11     2   ar
    26    27    20   ar
    27    10     5   ar
    28    17    18    1
    29    13    15    1
    30    13    16    1
@<TRIPOS>MOLECULE
*****
 28 30 0 0 0
SMALL
GASTEIGER

@<TRIPOS>ATOM
      1 C          64.7127   90.5828   14.4217 C.3     1  UNL1        0.0521
      2 C          64.0842   89.4077   13.7331 C.ar    1  UNL1        0.0606
      3 C          64.2996   88.0224   14.2666 C.ar    1  UNL1        0.0290
      4 C          63.6713   86.8473   13.5780 C.ar    1  UNL1        0.0475
      5 C          62.8274   87.0574   12.3558 C.ar    1  UNL1        0.0309
      6 C          62.1990   85.8823   11.6672 C.ar    1  UNL1        0.0027
      7 C          61.3552   86.0925   10.4450 C.ar    1  UNL1        0.0003
      8 C          61.1398   87.4777    9.9114 C.ar    1  UNL1        0.0060
      9 C          61.7682   88.6528   10.6000 C.ar    1  UNL1        0.0708
     10 C          62.6120   88.4427   11.8222 C.ar    1  UNL1        0.0864
     11 N          63.2404   89.6178   12.5109 N.ar    1  UNL1       -0.2494
     12 C          61.5528   90.0381   10.0664 C.2     1  UNL1        0.2442
     13 N          62.7296   90.9230    9.7803 N.am    1  UNL1       -0.3253
     14 O          60.1605   90.5384    9.8189 O.2     1  UNL1       -0.2703
     15 H          63.6434   90.5946    9.9428 H       1  UNL1        0.1453
     16 H          62.5882   91.8322    9.4301 H       1  UNL1        0.1453
     17 N          63.8867   85.4621   14.1116 N.pl3   1  UNL1       -0.3289
     18 H          63.6104   85.2399   15.0301 H       1  UNL1        0.1471
     19 C          64.5229   84.4154   13.2459 C.3     1  UNL1        0.1174
     20 C          63.8491   83.0890   13.0549 C.ar    1  UNL1        0.0363
     21 C          63.2226   82.3905   14.2253 C.ar    1  UNL1        0.1386
     22 F          63.2700   83.0186   15.5866 F       1  UNL1       -0.2044
     23 C          62.5488   81.0641   14.0343 C.ar    1  UNL1        0.0303
     24 C          62.5014   80.4361   12.6728 C.ar    1  UNL1        0.0145
     25 C          63.1279   81.1345   11.5025 C.ar    1  UNL1        0.0681
     26 CL         63.0805   80.5065   10.1411 Cl      1  UNL1       -0.0814
     27 C          63.8017   82.4609   11.6935 C.ar    1  UNL1        0.0680
     28 CL         64.4282   83.1594   10.5231 Cl      1  UNL1       -0.0816
@<TRIPOS>BOND
     1     1     2    1
     2     2     3   ar
     3     3     4   ar
     4     4    17    1
     5    17    19    1
     6    19    20    1
     7    20    21   ar
     8    21    22    1
     9    21    23   ar
    10    23    24   ar
    11    24    25   ar
    12    25    26    1
    13    25    27   ar
    14    27    28    1
    15     4     5   ar
    16     5     6   ar
    17     6     7   ar
    18     7     8   ar
    19     8     9   ar
    20     9    12    1
    21    12    13   am
    22    12    14    2
    23     9    10   ar
    24    10    11   ar
    25    11     2   ar
    26    27    20   ar
    27    10     5   ar
    28    17    18    1
    29    13    15    1
    30    13    16    1
