@<TRIPOS>MOLECULE
*****
 26 29 0 0 0
SMALL
GASTEIGER

@<TRIPOS>ATOM
      1 C          60.1285   86.4000    8.0535 C.3     1  UNL1        0.0318
      2 C          60.5397   87.5448    8.9312 C.ar    1  UNL1       -0.0088
      3 C          60.1487   88.9813    8.7475 C.ar    1  UNL1        0.0328
      4 S          60.7814   89.7785    9.8494 S.2     1  UNL1       -0.0693
      5 C          61.5634   88.8348   10.7141 C.ar    1  UNL1        0.0982
      6 C          61.4140   87.4543   10.1466 C.ar    1  UNL1        0.0749
      7 C          62.0934   86.2931   10.8100 C.ar    1  UNL1        0.2658
      8 O          61.9441   84.9126   10.2426 O.2     1  UNL1       -0.2668
      9 N          62.9222   86.5125   12.0409 N.ar    1  UNL1       -0.2484
     10 C          63.0716   87.8929   12.6083 C.ar    1  UNL1        0.3342
     11 O          63.9004   88.1123   13.8392 O.2     1  UNL1       -0.2462
     12 N          62.3922   89.0541   11.9450 N.ar    1  UNL1       -0.2732
     13 C          63.6017   85.3513   12.7043 C.3     1  UNL1        0.1182
     14 C          62.8447   84.4940   13.6749 C.3     1  UNL1        0.0511
     15 C          62.6821   83.0264   13.4108 C.ar    1  UNL1       -0.0202
     16 C          63.2032   82.4315   12.1361 C.ar    1  UNL1       -0.0042
     17 C          63.0406   80.9640   11.8720 C.ar    1  UNL1       -0.0003
     18 C          62.3568   80.0913   12.8824 C.ar    1  UNL1       -0.0000
     19 C          61.8357   80.6863   14.1570 C.ar    1  UNL1       -0.0003
     20 C          61.9983   82.1538   14.4212 C.ar    1  UNL1       -0.0042
     21 C          62.5415   90.4345   12.5124 C.3     1  UNL1        0.1404
     22 C          63.7058   91.2897   12.1082 C.3     1  UNL1        0.1379
     23 C          64.1231   91.6034   10.7020 C.3     1  UNL1        0.0341
     24 C          65.3322   92.4888   10.7639 C.3     1  UNL1        0.0346
     25 C          65.6622   92.7224   12.2084 C.3     1  UNL1        0.1422
     26 O          64.6570   91.9813   13.0392 O.3     1  UNL1       -0.3543
@<TRIPOS>BOND
     1     1     2    1
     2     2     3   ar
     3     3     4   ar
     4     4     5   ar
     5     5     6   ar
     6     6     7   ar
     7     7     8    2
     8     7     9   ar
     9     9    13    1
    10    13    14    1
    11    14    15    1
    12    15    16   ar
    13    16    17   ar
    14    17    18   ar
    15    18    19   ar
    16    19    20   ar
    17     9    10   ar
    18    10    11    2
    19    10    12   ar
    20    12    21    1
    21    21    22    1
    22    22    23    1
    23    23    24    1
    24    24    25    1
    25    25    26    1
    26     6     2   ar
    27    20    15   ar
    28    26    22    1
    29    12     5   ar
@<TRIPOS>MOLECULE
*****
 26 29 0 0 0
SMALL
GASTEIGER

@<TRIPOS>ATOM
      1 C          66.8743   93.6383   11.4136 C.3     1  UNL1        0.0318
      2 C          66.2996   92.9457   12.6136 C.ar    1  UNL1       -0.0088
      3 C          66.8150   93.0433   14.0189 C.ar    1  UNL1        0.0328
      4 S          65.9425   92.1918   14.8929 S.2     1  UNL1       -0.0693
      5 C          64.8879   91.5679   14.0277 C.ar    1  UNL1        0.0982
      6 C          65.1086   92.0338   12.6191 C.ar    1  UNL1        0.0749
      7 C          64.1966   91.5676   11.5233 C.ar    1  UNL1        0.2658
      8 O          64.4172   92.0334   10.1146 O.2     1  UNL1       -0.2668
      9 N          63.0637   90.6354   11.8362 N.ar    1  UNL1       -0.2484
     10 C          62.8430   90.1695   13.2447 C.ar    1  UNL1        0.3342
     11 O          61.7102   89.2373   13.5577 O.2     1  UNL1       -0.2462
     12 N          63.7551   90.6358   14.3405 N.ar    1  UNL1       -0.2732
     13 C          62.1516   90.1691   10.7404 C.3     1  UNL1        0.1182
     14 C          62.3385   88.8085   10.1371 C.3     1  UNL1        0.0511
     15 C          61.2636   88.2165    9.2745 C.ar    1  UNL1       -0.0202
     16 C          61.2164   86.7347    9.0462 C.ar    1  UNL1       -0.0042
     17 C          60.1415   86.1427    8.1836 C.ar    1  UNL1       -0.0003
     18 C          59.1138   87.0325    7.5493 C.ar    1  UNL1       -0.0000
     19 C          59.1611   88.5142    7.7777 C.ar    1  UNL1       -0.0003
     20 C          60.2359   89.1063    8.6403 C.ar    1  UNL1       -0.0042
     21 C          63.5343   90.1699   15.7492 C.3     1  UNL1        0.1404
     22 C          63.5005   88.7021   16.0571 C.3     1  UNL1        0.1379
     23 C          62.9104   88.0720   17.2837 C.3     1  UNL1        0.0341
     24 C          63.0960   86.5874   17.1771 C.3     1  UNL1        0.0346
     25 C          63.8007   86.2999   15.8846 C.3     1  UNL1        0.1422
     26 O          64.0507   87.6069   15.1923 O.3     1  UNL1       -0.3543
@<TRIPOS>BOND
     1     1     2    1
     2     2     3   ar
     3     3     4   ar
     4     4     5   ar
     5     5     6   ar
     6     6     7   ar
     7     7     8    2
     8     7     9   ar
     9     9    13    1
    10    13    14    1
    11    14    15    1
    12    15    16   ar
    13    16    17   ar
    14    17    18   ar
    15    18    19   ar
    16    19    20   ar
    17     9    10   ar
    18    10    11    2
    19    10    12   ar
    20    12    21    1
    21    21    22    1
    22    22    23    1
    23    23    24    1
    24    24    25    1
    25    25    26    1
    26     6     2   ar
    27    20    15   ar
    28    26    22    1
    29    12     5   ar
@<TRIPOS>MOLECULE
*****
 26 29 0 0 0
SMALL
GASTEIGER

@<TRIPOS>ATOM
      1 C          64.7883   91.0912   13.7829 C.3     1  UNL1        0.0318
      2 C          63.9091   90.4997   12.7212 C.ar    1  UNL1       -0.0088
      3 C          63.2840   91.2438   11.5786 C.ar    1  UNL1        0.0328
      4 S          62.4892   90.2642   10.7669 S.2     1  UNL1       -0.0693
      5 C          62.6230   88.9147   11.4080 C.ar    1  UNL1        0.0982
      6 C          63.5005   89.0603   12.6158 C.ar    1  UNL1        0.0749
      7 C          63.8142   87.8633   13.4636 C.ar    1  UNL1        0.2658
      8 O          64.6918   88.0088   14.6714 O.2     1  UNL1       -0.2668
      9 N          63.2504   86.5207   13.1035 N.ar    1  UNL1       -0.2484
     10 C          62.3729   86.3752   11.8958 C.ar    1  UNL1        0.3342
     11 O          61.8090   85.0326   11.5357 O.2     1  UNL1       -0.2462
     12 N          62.0592   87.5722   11.0480 N.ar    1  UNL1       -0.2732
     13 C          63.5641   85.3236   13.9514 C.3     1  UNL1        0.1182
     14 C          64.5440   84.2969   13.4661 C.3     1  UNL1        0.0511
     15 C          64.0780   83.1678   12.5955 C.ar    1  UNL1       -0.0202
     16 C          64.4520   83.1370   11.1431 C.ar    1  UNL1       -0.0042
     17 C          63.9859   82.0079   10.2725 C.ar    1  UNL1       -0.0003
     18 C          63.1458   80.9098   10.8542 C.ar    1  UNL1       -0.0000
     19 C          62.7718   80.9407   12.3065 C.ar    1  UNL1       -0.0003
     20 C          63.2379   82.0697   13.1772 C.ar    1  UNL1       -0.0042
     21 C          61.1817   87.4266    9.8402 C.3     1  UNL1        0.1404
     22 C          61.5410   86.4428    8.7662 C.3     1  UNL1        0.1379
     23 C          60.6210   85.9264    7.7000 C.3     1  UNL1        0.0341
     24 C          61.3947   84.9673    6.8449 C.3     1  UNL1        0.0346
     25 C          62.7929   84.8908    7.3826 C.3     1  UNL1        0.1422
     26 O          62.8833   85.8028    8.5701 O.3     1  UNL1       -0.3543
@<TRIPOS>BOND
     1     1     2    1
     2     2     3   ar
     3     3     4   ar
     4     4     5   ar
     5     5     6   ar
     6     6     7   ar
     7     7     8    2
     8     7     9   ar
     9     9    13    1
    10    13    14    1
    11    14    15    1
    12    15    16   ar
    13    16    17   ar
    14    17    18   ar
    15    18    19   ar
    16    19    20   ar
    17     9    10   ar
    18    10    11    2
    19    10    12   ar
    20    12    21    1
    21    21    22    1
    22    22    23    1
    23    23    24    1
    24    24    25    1
    25    25    26    1
    26     6     2   ar
    27    20    15   ar
    28    26    22    1
    29    12     5   ar
@<TRIPOS>MOLECULE
*****
 26 29 0 0 0
SMALL
GASTEIGER

@<TRIPOS>ATOM
      1 C          63.5271   90.2569   16.5928 C.3     1  UNL1        0.0318
      2 C          64.3585   91.1405   15.7107 C.ar    1  UNL1       -0.0088
      3 C          65.4775   92.0328   16.1599 C.ar    1  UNL1        0.0328
      4 S          66.0275   92.7307   14.9514 S.2     1  UNL1       -0.0693
      5 C          65.2484   92.2697   13.7553 C.ar    1  UNL1        0.0982
      6 C          64.2170   91.2870   14.2246 C.ar    1  UNL1        0.0749
      7 C          63.2821   90.6524   13.2382 C.ar    1  UNL1        0.2658
      8 O          62.2505   89.6695   13.7074 O.2     1  UNL1       -0.2668
      9 N          63.3787   91.0006   11.7823 N.ar    1  UNL1       -0.2484
     10 C          64.4101   91.9833   11.3130 C.ar    1  UNL1        0.3342
     11 O          64.5067   92.3315    9.8571 O.2     1  UNL1       -0.2462
     12 N          65.3450   92.6179   12.2995 N.ar    1  UNL1       -0.2732
     13 C          62.4437   90.3660   10.7957 C.3     1  UNL1        0.1182
     14 C          62.5902   88.9135   10.4508 C.3     1  UNL1        0.0511
     15 C          61.5854   88.2501    9.5563 C.ar    1  UNL1       -0.0202
     16 C          60.4816   89.0574    8.9398 C.ar    1  UNL1       -0.0042
     17 C          59.4768   88.3939    8.0453 C.ar    1  UNL1       -0.0003
     18 C          59.5757   86.9232    7.7673 C.ar    1  UNL1       -0.0000
     19 C          60.6795   86.1160    8.3838 C.ar    1  UNL1       -0.0003
     20 C          61.6844   86.7794    9.2783 C.ar    1  UNL1       -0.0042
     21 C          66.3764   93.6007   11.8302 C.3     1  UNL1        0.1404
     22 C          67.1689   93.3204   10.5878 C.3     1  UNL1        0.1379
     23 C          68.0274   92.1150   10.3428 C.3     1  UNL1        0.0341
     24 C          68.6310   92.2459    8.9759 C.3     1  UNL1        0.0346
     25 C          68.1457   93.5322    8.3761 C.3     1  UNL1        0.1422
     26 O          67.2420   94.1963    9.3723 O.3     1  UNL1       -0.3543
@<TRIPOS>BOND
     1     1     2    1
     2     2     3   ar
     3     3     4   ar
     4     4     5   ar
     5     5     6   ar
     6     6     7   ar
     7     7     8    2
     8     7     9   ar
     9     9    13    1
    10    13    14    1
    11    14    15    1
    12    15    16   ar
    13    16    17   ar
    14    17    18   ar
    15    18    19   ar
    16    19    20   ar
    17     9    10   ar
    18    10    11    2
    19    10    12   ar
    20    12    21    1
    21    21    22    1
    22    22    23    1
    23    23    24    1
    24    24    25    1
    25    25    26    1
    26     6     2   ar
    27    20    15   ar
    28    26    22    1
    29    12     5   ar
@<TRIPOS>MOLECULE
*****
 26 29 0 0 0
SMALL
GASTEIGER

@<TRIPOS>ATOM
      1 C          64.6988   85.4303   14.8621 C.3     1  UNL1        0.0318
      2 C          63.8094   85.6306   13.6710 C.ar    1  UNL1       -0.0088
      3 C          63.1380   84.5475   12.8798 C.ar    1  UNL1        0.0328
      4 S          62.3488   85.1967   11.7817 S.2     1  UNL1       -0.0693
      5 C          62.5325   86.6812   11.8943 C.ar    1  UNL1        0.0982
      6 C          63.4352   86.9493   13.0619 C.ar    1  UNL1        0.0749
      7 C          63.7998   88.3597   13.4196 C.ar    1  UNL1        0.2658
      8 O          64.7025   88.6279   14.5872 O.2     1  UNL1       -0.2668
      9 N          63.2617   89.5019   12.6097 N.ar    1  UNL1       -0.2484
     10 C          62.3590   89.2337   11.4421 C.ar    1  UNL1        0.3342
     11 O          61.8209   90.3759   10.6322 O.2     1  UNL1       -0.2462
     12 N          61.9944   87.8234   11.0844 N.ar    1  UNL1       -0.2732
     13 C          63.6263   90.9123   12.9674 C.3     1  UNL1        0.1182
     14 C          64.9930   91.4388   12.6434 C.3     1  UNL1        0.0511
     15 C          65.9280   91.8290   13.7495 C.ar    1  UNL1       -0.0202
     16 C          67.3993   91.9458   13.4816 C.ar    1  UNL1       -0.0042
     17 C          68.3343   92.3360   14.5877 C.ar    1  UNL1       -0.0003
     18 C          67.7981   92.6093   15.9617 C.ar    1  UNL1       -0.0000
     19 C          66.3268   92.4925   16.2295 C.ar    1  UNL1       -0.0003
     20 C          65.3918   92.1023   15.1235 C.ar    1  UNL1       -0.0042
     21 C          61.0917   87.5552    9.9168 C.3     1  UNL1        0.1404
     22 C          61.5010   86.5687    8.8634 C.3     1  UNL1        0.1379
     23 C          60.6116   85.9929    7.8016 C.3     1  UNL1        0.0341
     24 C          61.4324   85.0533    6.9690 C.3     1  UNL1        0.0346
     25 C          62.8290   85.0484    7.5161 C.3     1  UNL1        0.1422
     26 O          62.8714   85.9850    8.6870 O.3     1  UNL1       -0.3543
@<TRIPOS>BOND
     1     1     2    1
     2     2     3   ar
     3     3     4   ar
     4     4     5   ar
     5     5     6   ar
     6     6     7   ar
     7     7     8    2
     8     7     9   ar
     9     9    13    1
    10    13    14    1
    11    14    15    1
    12    15    16   ar
    13    16    17   ar
    14    17    18   ar
    15    18    19   ar
    16    19    20   ar
    17     9    10   ar
    18    10    11    2
    19    10    12   ar
    20    12    21    1
    21    21    22    1
    22    22    23    1
    23    23    24    1
    24    24    25    1
    25    25    26    1
    26     6     2   ar
    27    20    15   ar
    28    26    22    1
    29    12     5   ar
@<TRIPOS>MOLECULE
*****
 26 29 0 0 0
SMALL
GASTEIGER

@<TRIPOS>ATOM
      1 C          59.3547   88.8541    7.5115 C.3     1  UNL1        0.0318
      2 C          60.1052   87.7570    8.2065 C.ar    1  UNL1       -0.0088
      3 C          60.1485   86.3168    7.7891 C.ar    1  UNL1        0.0328
      4 S          61.0142   85.5771    8.7655 S.2     1  UNL1       -0.0693
      5 C          61.5058   86.5600    9.7864 C.ar    1  UNL1        0.0982
      6 C          60.9440   87.9072    9.4409 C.ar    1  UNL1        0.0749
      7 C          61.2689   89.0967   10.2949 C.ar    1  UNL1        0.2658
      8 O          60.7071   90.4440    9.9495 O.2     1  UNL1       -0.2668
      9 N          62.1556   88.9390   11.4945 N.ar    1  UNL1       -0.2484
     10 C          62.7173   87.5919   11.8400 C.ar    1  UNL1        0.3342
     11 O          63.6040   87.4341   13.0396 O.2     1  UNL1       -0.2462
     12 N          62.3925   86.4023   10.9860 N.ar    1  UNL1       -0.2732
     13 C          62.4805   90.1286   12.3486 C.3     1  UNL1        0.1182
     14 C          63.4384   91.1700   11.8510 C.3     1  UNL1        0.0511
     15 C          64.6076   91.5791   12.6970 C.ar    1  UNL1       -0.0202
     16 C          65.4617   92.7413   12.2845 C.ar    1  UNL1       -0.0042
     17 C          66.6308   93.1503   13.1305 C.ar    1  UNL1       -0.0003
     18 C          66.9459   92.3972   14.3889 C.ar    1  UNL1       -0.0000
     19 C          66.0919   91.2351   14.8013 C.ar    1  UNL1       -0.0003
     20 C          64.9227   90.8260   13.9554 C.ar    1  UNL1       -0.0042
     21 C          62.9543   85.0551   11.3315 C.3     1  UNL1        0.1404
     22 C          63.0990   84.6488   12.7683 C.3     1  UNL1        0.1379
     23 C          64.3288   84.0677   13.4006 C.3     1  UNL1        0.0341
     24 C          64.0292   83.8122   14.8479 C.3     1  UNL1        0.0346
     25 C          62.6143   84.2354   15.1102 C.3     1  UNL1        0.1422
     26 O          62.0394   84.7525   13.8249 O.3     1  UNL1       -0.3543
@<TRIPOS>BOND
     1     1     2    1
     2     2     3   ar
     3     3     4   ar
     4     4     5   ar
     5     5     6   ar
     6     6     7   ar
     7     7     8    2
     8     7     9   ar
     9     9    13    1
    10    13    14    1
    11    14    15    1
    12    15    16   ar
    13    16    17   ar
    14    17    18   ar
    15    18    19   ar
    16    19    20   ar
    17     9    10   ar
    18    10    11    2
    19    10    12   ar
    20    12    21    1
    21    21    22    1
    22    22    23    1
    23    23    24    1
    24    24    25    1
    25    25    26    1
    26     6     2   ar
    27    20    15   ar
    28    26    22    1
    29    12     5   ar
@<TRIPOS>MOLECULE
*****
 26 29 0 0 0
SMALL
GASTEIGER

@<TRIPOS>ATOM
      1 C          64.3295   85.5364   14.2252 C.3     1  UNL1        0.0318
      2 C          63.4426   85.4098   13.0222 C.ar    1  UNL1       -0.0088
      3 C          62.9487   84.1270   12.4219 C.ar    1  UNL1        0.0328
      4 S          62.0947   84.4682   11.2369 S.2     1  UNL1       -0.0693
      5 C          62.0608   85.9620   11.1047 C.ar    1  UNL1        0.0982
      6 C          62.8938   86.5439   12.2081 C.ar    1  UNL1        0.0749
      7 C          63.0450   88.0314   12.3290 C.ar    1  UNL1        0.2658
      8 O          63.8780   88.6134   13.4324 O.2     1  UNL1       -0.2668
      9 N          62.3632   88.9368   11.3464 N.ar    1  UNL1       -0.2484
     10 C          61.5302   88.3549   10.2431 C.ar    1  UNL1        0.3342
     11 O          60.8484   89.2603    9.2606 O.2     1  UNL1       -0.2462
     12 N          61.3790   86.8674   10.1222 N.ar    1  UNL1       -0.2732
     13 C          62.5144   90.4244   11.4673 C.3     1  UNL1        0.1182
     14 C          63.6032   91.1311   10.7156 C.3     1  UNL1        0.0511
     15 C          64.5949   91.9803   11.4540 C.ar    1  UNL1       -0.0202
     16 C          65.3125   93.0876   10.7403 C.ar    1  UNL1       -0.0042
     17 C          66.3042   93.9368   11.4787 C.ar    1  UNL1       -0.0003
     18 C          66.5784   93.6788   12.9307 C.ar    1  UNL1       -0.0000
     19 C          65.8609   92.5717   13.6443 C.ar    1  UNL1       -0.0003
     20 C          64.8691   91.7224   12.9060 C.ar    1  UNL1       -0.0042
     21 C          60.5460   86.2855    9.0189 C.3     1  UNL1        0.1404
     22 C          61.2057   85.5589    7.8844 C.3     1  UNL1        0.1379
     23 C          62.6771   85.3091    7.7342 C.3     1  UNL1        0.0341
     24 C          62.8906   84.5504    6.4580 C.3     1  UNL1        0.0346
     25 C          61.5511   84.3312    5.8195 C.3     1  UNL1        0.1422
     26 O          60.5098   84.9545    6.7010 O.3     1  UNL1       -0.3543
@<TRIPOS>BOND
     1     1     2    1
     2     2     3   ar
     3     3     4   ar
     4     4     5   ar
     5     5     6   ar
     6     6     7   ar
     7     7     8    2
     8     7     9   ar
     9     9    13    1
    10    13    14    1
    11    14    15    1
    12    15    16   ar
    13    16    17   ar
    14    17    18   ar
    15    18    19   ar
    16    19    20   ar
    17     9    10   ar
    18    10    11    2
    19    10    12   ar
    20    12    21    1
    21    21    22    1
    22    22    23    1
    23    23    24    1
    24    24    25    1
    25    25    26    1
    26     6     2   ar
    27    20    15   ar
    28    26    22    1
    29    12     5   ar
@<TRIPOS>MOLECULE
*****
 26 29 0 0 0
SMALL
GASTEIGER

@<TRIPOS>ATOM
      1 C          62.7543   79.6021   13.5347 C.3     1  UNL1        0.0318
      2 C          62.8576   80.6685   12.4849 C.ar    1  UNL1       -0.0088
      3 C          62.9735   80.4421   11.0066 C.ar    1  UNL1        0.0328
      4 S          63.0507   81.7821   10.3370 S.2     1  UNL1       -0.0693
      5 C          62.9825   82.8367   11.4015 C.ar    1  UNL1        0.0982
      6 C          62.8631   82.1484   12.7289 C.ar    1  UNL1        0.0749
      7 C          62.7750   82.9583   13.9884 C.ar    1  UNL1        0.2658
      8 O          62.6556   82.2700   15.3159 O.2     1  UNL1       -0.2668
      9 N          62.8061   84.4565   13.9205 N.ar    1  UNL1       -0.2484
     10 C          62.9254   85.1447   12.5931 C.ar    1  UNL1        0.3342
     11 O          62.9565   86.6429   12.5251 O.2     1  UNL1       -0.2462
     12 N          63.0136   84.3349   11.3336 N.ar    1  UNL1       -0.2732
     13 C          62.7179   85.2664   15.1800 C.3     1  UNL1        0.1182
     14 C          63.9103   86.0399   15.6594 C.3     1  UNL1        0.0511
     15 C          63.8801   87.5395   15.6615 C.ar    1  UNL1       -0.0202
     16 C          63.1790   88.2740   16.7657 C.ar    1  UNL1       -0.0042
     17 C          63.1488   89.7736   16.7679 C.ar    1  UNL1       -0.0003
     18 C          63.8196   90.5389   15.6658 C.ar    1  UNL1       -0.0000
     19 C          64.5206   89.8045   14.5617 C.ar    1  UNL1       -0.0003
     20 C          64.5509   88.3048   14.5595 C.ar    1  UNL1       -0.0042
     21 C          63.1329   85.0232   10.0062 C.3     1  UNL1        0.1404
     22 C          61.9258   85.6533    9.3769 C.3     1  UNL1        0.1379
     23 C          61.5539   85.5899    7.9251 C.3     1  UNL1        0.0341
     24 C          60.2770   86.3548    7.7399 C.3     1  UNL1        0.0346
     25 C          59.8597   86.8910    9.0772 C.3     1  UNL1        0.1422
     26 O          60.8787   86.4574   10.0889 O.3     1  UNL1       -0.3543
@<TRIPOS>BOND
     1     1     2    1
     2     2     3   ar
     3     3     4   ar
     4     4     5   ar
     5     5     6   ar
     6     6     7   ar
     7     7     8    2
     8     7     9   ar
     9     9    13    1
    10    13    14    1
    11    14    15    1
    12    15    16   ar
    13    16    17   ar
    14    17    18   ar
    15    18    19   ar
    16    19    20   ar
    17     9    10   ar
    18    10    11    2
    19    10    12   ar
    20    12    21    1
    21    21    22    1
    22    22    23    1
    23    23    24    1
    24    24    25    1
    25    25    26    1
    26     6     2   ar
    27    20    15   ar
    28    26    22    1
    29    12     5   ar
@<TRIPOS>MOLECULE
*****
 26 29 0 0 0
SMALL
GASTEIGER

@<TRIPOS>ATOM
      1 C          63.3009   84.6295   12.7100 C.3     1  UNL1        0.0318
      2 C          63.6898   85.8341   13.5147 C.ar    1  UNL1       -0.0088
      3 C          64.2905   85.8200   14.8891 C.ar    1  UNL1        0.0328
      4 S          64.5183   87.2415   15.3101 S.2     1  UNL1       -0.0693
      5 C          64.0585   88.1343   14.1959 C.ar    1  UNL1        0.0982
      6 C          63.5465   87.2645   13.0863 C.ar    1  UNL1        0.0749
      7 C          63.0158   87.8872   11.8291 C.ar    1  UNL1        0.2658
      8 O          62.5038   87.0175   10.7194 O.2     1  UNL1       -0.2668
      9 N          62.9972   89.3799   11.6816 N.ar    1  UNL1       -0.2484
     10 C          63.5092   90.2497   12.7911 C.ar    1  UNL1        0.3342
     11 O          63.4905   91.7424   12.6436 O.2     1  UNL1       -0.2462
     12 N          64.0398   89.6269   14.0483 N.ar    1  UNL1       -0.2732
     13 C          62.4665   90.0028   10.4243 C.3     1  UNL1        0.1182
     14 C          60.9862   90.1091   10.2070 C.3     1  UNL1        0.0511
     15 C          60.2984   89.1736    9.2573 C.ar    1  UNL1       -0.0202
     16 C          59.9596   87.7786    9.6924 C.ar    1  UNL1       -0.0042
     17 C          59.2719   86.8431    8.7427 C.ar    1  UNL1       -0.0003
     18 C          58.9230   87.3026    7.3581 C.ar    1  UNL1       -0.0000
     19 C          59.2618   88.6976    6.9232 C.ar    1  UNL1       -0.0003
     20 C          59.9495   89.6331    7.8727 C.ar    1  UNL1       -0.0042
     21 C          64.5518   90.4967   15.1580 C.3     1  UNL1        0.1404
     22 C          65.6743   91.4580   14.9004 C.3     1  UNL1        0.1379
     23 C          67.1062   91.0929   14.6429 C.3     1  UNL1        0.0341
     24 C          67.8786   92.3622   14.4385 C.3     1  UNL1        0.0346
     25 C          66.9242   93.5119   14.5698 C.3     1  UNL1        0.1422
     26 O          65.5618   92.9531   14.8552 O.3     1  UNL1       -0.3543
@<TRIPOS>BOND
     1     1     2    1
     2     2     3   ar
     3     3     4   ar
     4     4     5   ar
     5     5     6   ar
     6     6     7   ar
     7     7     8    2
     8     7     9   ar
     9     9    13    1
    10    13    14    1
    11    14    15    1
    12    15    16   ar
    13    16    17   ar
    14    17    18   ar
    15    18    19   ar
    16    19    20   ar
    17     9    10   ar
    18    10    11    2
    19    10    12   ar
    20    12    21    1
    21    21    22    1
    22    22    23    1
    23    23    24    1
    24    24    25    1
    25    25    26    1
    26     6     2   ar
    27    20    15   ar
    28    26    22    1
    29    12     5   ar
