@<TRIPOS>MOLECULE
*****
 24 26 0 0 0
SMALL
GASTEIGER

@<TRIPOS>ATOM
      1 C          64.3422   90.7840   13.1516 C.3     1  UNL1        0.2337
      2 N          65.1347   91.7017   12.2685 N.ar    1  UNL1       -0.2923
      3 C          66.4513   92.3933   12.4640 C.ar    1  UNL1        0.1796
      4 N          66.7450   93.1891   11.2269 N.ar    1  UNL1       -0.2226
      5 C          65.6100   92.9893   10.2668 C.ar    1  UNL1        0.1148
      6 C          64.6147   92.0700   10.9105 C.ar    1  UNL1        0.0770
      7 C          63.3022   91.5206   10.4357 C.3     1  UNL1        0.1409
      8 N          62.5097   90.6030   11.3187 N.3     1  UNL1       -0.1490
      9 S          63.0296   90.2347   12.6766 S.O2    1  UNL1        0.0628
     10 O          61.7423   89.4646   12.6729 O.2     1  UNL1       -0.1555
     11 O          63.1025   89.5990   14.0333 O.2     1  UNL1       -0.1555
     12 C          61.1971   90.0537   10.8438 C.3     1  UNL1        0.1019
     13 C          59.9136   90.6976   11.2776 C.3     1  UNL1        0.0240
     14 C          61.1680   88.8607    9.9351 C.ar    1  UNL1       -0.0061
     15 C          60.0461   88.6926    8.9537 C.ar    1  UNL1       -0.0021
     16 C          60.0170   87.4996    8.0450 C.ar    1  UNL1        0.0111
     17 C          61.1099   86.4745    8.1177 C.ar    1  UNL1        0.0577
     18 CL         61.0808   85.2815    7.2090 Cl      1  UNL1       -0.0822
     19 C          62.2317   86.6426    9.0991 C.ar    1  UNL1        0.0111
     20 C          62.2607   87.8358   10.0078 C.ar    1  UNL1       -0.0021
     21 C          64.8621   90.4157   14.5095 C.3     1  UNL1        0.0490
     22 C          63.8218   91.6002   16.5746 C.3     1  UNL1        0.0001
     23 C          64.9429   91.4543   15.5887 C.3     1  UNL1        0.0037
     24 C          66.1448   92.3469   15.6822 C.3     1  UNL1        0.0001
@<TRIPOS>BOND
     1    22    23    1
     2    23    24    1
     3    23    21    1
     4    21     1    1
     5     1     2    1
     6     2     3   ar
     7     3     4   ar
     8     4     5   ar
     9     5     6   ar
    10     6     7    1
    11     7     8    1
    12     8    12    1
    13    12    13    1
    14    12    14    1
    15    14    15   ar
    16    15    16   ar
    17    16    17   ar
    18    17    18    1
    19    17    19   ar
    20    19    20   ar
    21     8     9    1
    22     9    10    2
    23     9    11    2
    24     9     1    1
    25     6     2   ar
    26    20    14   ar
@<TRIPOS>MOLECULE
*****
 24 26 0 0 0
SMALL
GASTEIGER

@<TRIPOS>ATOM
      1 C          61.9424   86.7755   10.8908 C.3     1  UNL1        0.2337
      2 N          61.0335   87.3755    9.8593 N.ar    1  UNL1       -0.2923
      3 C          60.2151   86.7604    8.7630 C.ar    1  UNL1        0.1796
      4 N          59.5000   87.8649    8.0430 N.ar    1  UNL1       -0.2226
      5 C          59.8764   89.1627    8.6941 C.ar    1  UNL1        0.1148
      6 C          60.8242   88.8602    9.8167 C.ar    1  UNL1        0.0770
      7 C          61.5238   89.7449   10.8056 C.3     1  UNL1        0.1409
      8 N          62.4326   89.1449   11.8371 N.3     1  UNL1       -0.1490
      9 S          62.6419   87.6603   11.8797 S.O2    1  UNL1        0.0628
     10 O          63.5201   88.0800   13.0211 O.2     1  UNL1       -0.1555
     11 O          63.1562   86.3212   12.3187 O.2     1  UNL1       -0.1555
     12 C          63.1321   90.0297   12.8261 C.3     1  UNL1        0.1019
     13 C          62.8881   89.8518   14.2953 C.3     1  UNL1        0.0240
     14 C          64.0755   91.0922   12.3457 C.ar    1  UNL1       -0.0061
     15 C          64.0178   91.5582   10.9211 C.ar    1  UNL1       -0.0021
     16 C          64.9613   92.6208   10.4407 C.ar    1  UNL1        0.0111
     17 C          65.9626   93.2174   11.3850 C.ar    1  UNL1        0.0577
     18 CL         66.9060   94.2800   10.9046 Cl      1  UNL1       -0.0822
     19 C          66.0203   92.7514   12.8096 C.ar    1  UNL1        0.0111
     20 C          65.0768   91.6888   13.2899 C.ar    1  UNL1       -0.0021
     21 C          62.1517   85.2907   10.9334 C.3     1  UNL1        0.0490
     22 C          63.8690   83.4324   10.3443 C.3     1  UNL1        0.0001
     23 C          63.0654   84.6334    9.9420 C.3     1  UNL1        0.0037
     24 C          63.1755   85.1769    8.5483 C.3     1  UNL1        0.0001
@<TRIPOS>BOND
     1    22    23    1
     2    23    24    1
     3    23    21    1
     4    21     1    1
     5     1     2    1
     6     2     3   ar
     7     3     4   ar
     8     4     5   ar
     9     5     6   ar
    10     6     7    1
    11     7     8    1
    12     8    12    1
    13    12    13    1
    14    12    14    1
    15    14    15   ar
    16    15    16   ar
    17    16    17   ar
    18    17    18    1
    19    17    19   ar
    20    19    20   ar
    21     8     9    1
    22     9    10    2
    23     9    11    2
    24     9     1    1
    25     6     2   ar
    26    20    14   ar
@<TRIPOS>MOLECULE
*****
 24 26 0 0 0
SMALL
GASTEIGER

@<TRIPOS>ATOM
      1 C          63.7731   87.5325   13.6286 C.3     1  UNL1        0.2337
      2 N          64.0018   86.1163   14.0669 N.ar    1  UNL1       -0.2923
      3 C          64.8550   85.5264   15.1504 C.ar    1  UNL1        0.1796
      4 N          64.6807   84.0369   15.1183 N.ar    1  UNL1       -0.2226
      5 C          63.7198   83.7063   14.0150 C.ar    1  UNL1        0.1148
      6 C          63.3002   84.9914   13.3652 C.ar    1  UNL1        0.0770
      7 C          62.3699   85.2827   12.2252 C.3     1  UNL1        0.1409
      8 N          62.1412   86.6989   11.7869 N.3     1  UNL1       -0.1490
      9 S          62.8427   87.8237   12.4885 S.O2    1  UNL1        0.0628
     10 O          62.0619   88.5993   11.4692 O.2     1  UNL1       -0.1555
     11 O          63.2732   89.2180   12.8363 O.2     1  UNL1       -0.1555
     12 C          61.2108   86.9901   10.6468 C.3     1  UNL1        0.1019
     13 C          60.0966   87.9790   10.8220 C.3     1  UNL1        0.0240
     14 C          61.3947   86.2926    9.3317 C.ar    1  UNL1       -0.0061
     15 C          62.7234   85.6911    8.9810 C.ar    1  UNL1       -0.0021
     16 C          62.9072   84.9936    7.6660 C.ar    1  UNL1        0.0111
     17 C          61.7624   84.8975    6.7014 C.ar    1  UNL1        0.0577
     18 CL         61.9463   84.1999    5.3863 Cl      1  UNL1       -0.0822
     19 C          60.4338   85.4989    7.0520 C.ar    1  UNL1        0.0111
     20 C          60.2499   86.1965    8.3672 C.ar    1  UNL1       -0.0021
     21 C          64.4747   88.6574   14.3303 C.3     1  UNL1        0.0490
     22 C          63.9197   90.7871   15.7109 C.3     1  UNL1        0.0001
     23 C          63.8470   89.2996   15.5317 C.3     1  UNL1        0.0037
     24 C          63.1466   88.4543   16.5539 C.3     1  UNL1        0.0001
@<TRIPOS>BOND
     1    22    23    1
     2    23    24    1
     3    23    21    1
     4    21     1    1
     5     1     2    1
     6     2     3   ar
     7     3     4   ar
     8     4     5   ar
     9     5     6   ar
    10     6     7    1
    11     7     8    1
    12     8    12    1
    13    12    13    1
    14    12    14    1
    15    14    15   ar
    16    15    16   ar
    17    16    17   ar
    18    17    18    1
    19    17    19   ar
    20    19    20   ar
    21     8     9    1
    22     9    10    2
    23     9    11    2
    24     9     1    1
    25     6     2   ar
    26    20    14   ar
@<TRIPOS>MOLECULE
*****
 24 26 0 0 0
SMALL
GASTEIGER

@<TRIPOS>ATOM
      1 C          64.2330   91.7167   11.4180 C.3     1  UNL1        0.2337
      2 N          64.7400   91.6066   12.8254 N.ar    1  UNL1       -0.2923
      3 C          65.7072   92.4408   13.6119 C.ar    1  UNL1        0.1796
      4 N          65.8267   91.8433   14.9826 N.ar    1  UNL1       -0.2226
      5 C          64.9334   90.6398   15.0431 C.ar    1  UNL1        0.1148
      6 C          64.2618   90.4935   13.7099 C.ar    1  UNL1        0.0770
      7 C          63.2765   89.4906   13.1871 C.3     1  UNL1        0.1409
      8 N          62.7695   89.6007   11.7797 N.3     1  UNL1       -0.1490
      9 S          63.2477   90.7137   10.8952 S.O2    1  UNL1        0.0628
     10 O          62.3161   90.0128    9.9512 O.2     1  UNL1       -0.1555
     11 O          63.4024   91.5834    9.6828 O.2     1  UNL1       -0.1555
     12 C          61.7842   88.5977   11.2568 C.3     1  UNL1        0.1019
     13 C          60.3429   88.9785   11.0910 C.3     1  UNL1        0.0240
     14 C          62.2402   87.2141   10.8999 C.ar    1  UNL1       -0.0061
     15 C          62.3716   86.8158    9.4596 C.ar    1  UNL1       -0.0021
     16 C          62.8276   85.4322    9.1027 C.ar    1  UNL1        0.0111
     17 C          63.1524   84.4467   10.1860 C.ar    1  UNL1        0.0577
     18 CL         63.6085   83.0630    9.8290 Cl      1  UNL1       -0.0822
     19 C          63.0211   84.8449   11.6262 C.ar    1  UNL1        0.0111
     20 C          62.5650   86.2286   11.9831 C.ar    1  UNL1       -0.0021
     21 C          64.7111   92.8298   10.5334 C.3     1  UNL1        0.0490
     22 C          67.2449   92.3115   10.2857 C.3     1  UNL1        0.0001
     23 C          66.1411   93.2779   10.5985 C.3     1  UNL1        0.0037
     24 C          66.4674   94.6924   10.9763 C.3     1  UNL1        0.0001
@<TRIPOS>BOND
     1    22    23    1
     2    23    24    1
     3    23    21    1
     4    21     1    1
     5     1     2    1
     6     2     3   ar
     7     3     4   ar
     8     4     5   ar
     9     5     6   ar
    10     6     7    1
    11     7     8    1
    12     8    12    1
    13    12    13    1
    14    12    14    1
    15    14    15   ar
    16    15    16   ar
    17    16    17   ar
    18    17    18    1
    19    17    19   ar
    20    19    20   ar
    21     8     9    1
    22     9    10    2
    23     9    11    2
    24     9     1    1
    25     6     2   ar
    26    20    14   ar
@<TRIPOS>MOLECULE
*****
 24 26 0 0 0
SMALL
GASTEIGER

@<TRIPOS>ATOM
      1 C          63.5754   86.1796   13.0577 C.3     1  UNL1        0.2337
      2 N          62.7200   86.1743   11.8255 N.ar    1  UNL1       -0.2923
      3 C          62.1984   85.0576   10.9707 C.ar    1  UNL1        0.1796
      4 N          61.3892   85.6620    9.8617 N.ar    1  UNL1       -0.2226
      5 C          61.4107   87.1522   10.0311 C.ar    1  UNL1        0.1148
      6 C          62.2333   87.4689   11.2448 C.ar    1  UNL1        0.0770
      7 C          62.6019   88.7687   11.8963 C.3     1  UNL1        0.1409
      8 N          63.4573   88.7741   13.1284 N.3     1  UNL1       -0.1490
      9 S          63.9441   87.4796   13.7091 S.O2    1  UNL1        0.0628
     10 O          64.5555   88.4465   14.6793 O.2     1  UNL1       -0.1555
     11 O          64.6432   86.5208   14.6268 O.2     1  UNL1       -0.1555
     12 C          63.8259   90.0740   13.7799 C.3     1  UNL1        0.1019
     13 C          63.4270   90.3403   15.2011 C.3     1  UNL1        0.0240
     14 C          64.5935   91.1076   13.0102 C.ar    1  UNL1       -0.0061
     15 C          65.7793   91.7809   13.6351 C.ar    1  UNL1       -0.0021
     16 C          66.5468   92.8144   12.8654 C.ar    1  UNL1        0.0111
     17 C          66.1286   93.1748   11.4706 C.ar    1  UNL1        0.0577
     18 CL         66.8961   94.2084   10.7009 Cl      1  UNL1       -0.0822
     19 C          64.9428   92.5015   10.8456 C.ar    1  UNL1        0.0111
     20 C          64.1753   91.4679   11.6155 C.ar    1  UNL1       -0.0021
     21 C          64.0623   84.8851   13.6384 C.3     1  UNL1        0.0490
     22 C          62.9993   82.5193   13.4869 C.3     1  UNL1        0.0001
     23 C          63.0775   83.8691   14.1364 C.3     1  UNL1        0.0037
     24 C          62.1709   84.2030   15.2839 C.3     1  UNL1        0.0001
@<TRIPOS>BOND
     1    22    23    1
     2    23    24    1
     3    23    21    1
     4    21     1    1
     5     1     2    1
     6     2     3   ar
     7     3     4   ar
     8     4     5   ar
     9     5     6   ar
    10     6     7    1
    11     7     8    1
    12     8    12    1
    13    12    13    1
    14    12    14    1
    15    14    15   ar
    16    15    16   ar
    17    16    17   ar
    18    17    18    1
    19    17    19   ar
    20    19    20   ar
    21     8     9    1
    22     9    10    2
    23     9    11    2
    24     9     1    1
    25     6     2   ar
    26    20    14   ar
@<TRIPOS>MOLECULE
*****
 24 26 0 0 0
SMALL
GASTEIGER

@<TRIPOS>ATOM
      1 C          62.9371   89.1548   12.3446 C.3     1  UNL1        0.2337
      2 N          62.1598   88.7511   11.1269 N.ar    1  UNL1       -0.2923
      3 C          61.4688   89.5546   10.0654 C.ar    1  UNL1        0.1796
      4 N          60.8523   88.5982    9.0880 N.ar    1  UNL1       -0.2226
      5 C          61.1622   87.2037    9.5455 C.ar    1  UNL1        0.1148
      6 C          61.9704   87.2982   10.8056 C.ar    1  UNL1        0.0770
      7 C          62.5582   86.2490   11.7021 C.3     1  UNL1        0.1409
      8 N          63.3354   86.6527   12.9198 N.3     1  UNL1       -0.1490
      9 S          63.5249   88.1054   13.2411 S.O2    1  UNL1        0.0628
     10 O          64.2682   87.4861   14.3874 O.2     1  UNL1       -0.1555
     11 O          63.9725   89.3433   13.9605 O.2     1  UNL1       -0.1555
     12 C          63.9233   85.6033   13.8162 C.3     1  UNL1        0.1019
     13 C          64.9296   85.9870   14.8603 C.3     1  UNL1        0.0240
     14 C          63.5048   84.1706   13.6686 C.ar    1  UNL1       -0.0061
     15 C          64.1757   83.2941   12.6527 C.ar    1  UNL1       -0.0021
     16 C          63.7572   81.8613   12.5050 C.ar    1  UNL1        0.0111
     17 C          62.6678   81.3048   13.3732 C.ar    1  UNL1        0.0577
     18 CL         62.2493   79.8720   13.2255 Cl      1  UNL1       -0.0822
     19 C          61.9969   82.1812   14.3890 C.ar    1  UNL1        0.0111
     20 C          62.4154   83.6141   14.5367 C.ar    1  UNL1       -0.0021
     21 C          63.1266   90.6077   12.6660 C.3     1  UNL1        0.0490
     22 C          65.3084   92.0150   12.5721 C.3     1  UNL1        0.0001
     23 C          64.1119   91.4261   11.8854 C.3     1  UNL1        0.0037
     24 C          63.9007   91.6557   10.4182 C.3     1  UNL1        0.0001
@<TRIPOS>BOND
     1    22    23    1
     2    23    24    1
     3    23    21    1
     4    21     1    1
     5     1     2    1
     6     2     3   ar
     7     3     4   ar
     8     4     5   ar
     9     5     6   ar
    10     6     7    1
    11     7     8    1
    12     8    12    1
    13    12    13    1
    14    12    14    1
    15    14    15   ar
    16    15    16   ar
    17    16    17   ar
    18    17    18    1
    19    17    19   ar
    20    19    20   ar
    21     8     9    1
    22     9    10    2
    23     9    11    2
    24     9     1    1
    25     6     2   ar
    26    20    14   ar
@<TRIPOS>MOLECULE
*****
 24 26 0 0 0
SMALL
GASTEIGER

@<TRIPOS>ATOM
      1 C          63.7597   85.8016   13.3470 C.3     1  UNL1        0.2337
      2 N          62.9469   85.8021   12.0863 N.ar    1  UNL1       -0.2923
      3 C          62.4772   84.6911   11.1946 C.ar    1  UNL1        0.1796
      4 N          61.6941   85.2997   10.0693 N.ar    1  UNL1       -0.2226
      5 C          61.6798   86.7868   10.2655 C.ar    1  UNL1        0.1148
      6 C          62.4541   87.0972   11.5121 C.ar    1  UNL1        0.0770
      7 C          62.7741   88.3920   12.1987 C.3     1  UNL1        0.1409
      8 N          63.5869   88.3915   13.4593 N.3     1  UNL1       -0.1490
      9 S          64.0797   87.0964   14.0335 S.O2    1  UNL1        0.0628
     10 O          64.6382   88.0572   15.0410 O.2     1  UNL1       -0.1555
     11 O          64.7665   86.1349   14.9575 O.2     1  UNL1       -0.1555
     12 C          63.9068   89.6863   14.1458 C.3     1  UNL1        0.1019
     13 C          63.5291   89.8861   15.5837 C.3     1  UNL1        0.0240
     14 C          64.6044   90.7811   13.3946 C.ar    1  UNL1       -0.0061
     15 C          64.1092   91.1950   12.0404 C.ar    1  UNL1       -0.0021
     16 C          64.8068   92.2899   11.2891 C.ar    1  UNL1        0.0111
     17 C          65.9997   92.9710   11.8919 C.ar    1  UNL1        0.0577
     18 CL         66.6974   94.0659   11.1405 Cl      1  UNL1       -0.0822
     19 C          66.4950   92.5571   13.2460 C.ar    1  UNL1        0.0111
     20 C          65.7973   91.4622   13.9973 C.ar    1  UNL1       -0.0021
     21 C          64.2526   84.5065   13.9212 C.3     1  UNL1        0.0490
     22 C          62.2571   83.6239   15.3314 C.3     1  UNL1        0.0001
     23 C          63.2792   83.4147   14.2536 C.3     1  UNL1        0.0037
     24 C          63.3278   82.1139   13.5083 C.3     1  UNL1        0.0001
@<TRIPOS>BOND
     1    22    23    1
     2    23    24    1
     3    23    21    1
     4    21     1    1
     5     1     2    1
     6     2     3   ar
     7     3     4   ar
     8     4     5   ar
     9     5     6   ar
    10     6     7    1
    11     7     8    1
    12     8    12    1
    13    12    13    1
    14    12    14    1
    15    14    15   ar
    16    15    16   ar
    17    16    17   ar
    18    17    18    1
    19    17    19   ar
    20    19    20   ar
    21     8     9    1
    22     9    10    2
    23     9    11    2
    24     9     1    1
    25     6     2   ar
    26    20    14   ar
@<TRIPOS>MOLECULE
*****
 24 26 0 0 0
SMALL
GASTEIGER

@<TRIPOS>ATOM
      1 C          63.8596   87.5640   13.6178 C.3     1  UNL1        0.2337
      2 N          63.1567   88.0258   12.3758 N.ar    1  UNL1       -0.2923
      3 C          63.0867   89.3635   11.7007 C.ar    1  UNL1        0.1796
      4 N          62.2255   89.2225   10.4807 N.ar    1  UNL1       -0.2226
      5 C          61.7632   87.7977   10.4018 C.ar    1  UNL1        0.1148
      6 C          62.3387   87.0581   11.5731 C.ar    1  UNL1        0.0770
      7 C          62.2237   85.6285   12.0123 C.3     1  UNL1        0.1409
      8 N          62.9266   85.1666   13.2543 N.3     1  UNL1       -0.1490
      9 S          63.7445   86.1343   14.0570 S.O2    1  UNL1        0.0628
     10 O          63.9367   84.8908   14.8736 O.2     1  UNL1       -0.1555
     11 O          64.6292   86.6702   15.1434 O.2     1  UNL1       -0.1555
     12 C          62.8114   83.7369   13.6935 C.3     1  UNL1        0.1019
     13 C          62.6141   83.4118   15.1445 C.3     1  UNL1        0.0240
     14 C          62.8936   82.6326   12.6819 C.ar    1  UNL1       -0.0061
     15 C          63.4625   82.9033   11.3205 C.ar    1  UNL1       -0.0021
     16 C          63.5447   81.7990   10.3089 C.ar    1  UNL1        0.0111
     17 C          63.0580   80.4238   10.6585 C.ar    1  UNL1        0.0577
     18 CL         63.1402   79.3194    9.6467 Cl      1  UNL1       -0.0822
     19 C          62.4892   80.1530   12.0198 C.ar    1  UNL1        0.0111
     20 C          62.4070   81.2575   13.0315 C.ar    1  UNL1       -0.0021
     21 C          64.6776   88.5317   14.4206 C.3     1  UNL1        0.0490
     22 C          64.2413   91.0838   14.6350 C.3     1  UNL1        0.0001
     23 C          64.0106   89.6817   15.1154 C.3     1  UNL1        0.0037
     24 C          63.1130   89.4295   16.2904 C.3     1  UNL1        0.0001
@<TRIPOS>BOND
     1    22    23    1
     2    23    24    1
     3    23    21    1
     4    21     1    1
     5     1     2    1
     6     2     3   ar
     7     3     4   ar
     8     4     5   ar
     9     5     6   ar
    10     6     7    1
    11     7     8    1
    12     8    12    1
    13    12    13    1
    14    12    14    1
    15    14    15   ar
    16    15    16   ar
    17    16    17   ar
    18    17    18    1
    19    17    19   ar
    20    19    20   ar
    21     8     9    1
    22     9    10    2
    23     9    11    2
    24     9     1    1
    25     6     2   ar
    26    20    14   ar
@<TRIPOS>MOLECULE
*****
 24 26 0 0 0
SMALL
GASTEIGER

@<TRIPOS>ATOM
      1 C          64.4722   90.5021   13.1686 C.3     1  UNL1        0.2337
      2 N          64.8161   91.6484   12.2643 N.ar    1  UNL1       -0.2923
      3 C          65.7693   92.7965   12.4174 C.ar    1  UNL1        0.1796
      4 N          65.6878   93.6351   11.1764 N.ar    1  UNL1       -0.2226
      5 C          64.6843   93.0054   10.2564 C.ar    1  UNL1        0.1148
      6 C          64.1456   91.7775   10.9288 C.ar    1  UNL1        0.0770
      7 C          63.1310   90.7603   10.4975 C.3     1  UNL1        0.1409
      8 N          62.7871   89.6140   11.4017 N.3     1  UNL1       -0.1490
      9 S          63.4576   89.4849   12.7372 S.O2    1  UNL1        0.0628
     10 O          62.5687   88.2772   12.7742 O.2     1  UNL1       -0.1555
     11 O          63.8195   88.9364   14.0857 O.2     1  UNL1       -0.1555
     12 C          61.7725   88.5968   10.9704 C.3     1  UNL1        0.1019
     13 C          60.3258   88.9787   10.8647 C.3     1  UNL1        0.0240
     14 C          62.2046   87.1979   10.6448 C.ar    1  UNL1       -0.0061
     15 C          62.2608   86.1595   11.7259 C.ar    1  UNL1       -0.0021
     16 C          62.6929   84.7605   11.4003 C.ar    1  UNL1        0.0111
     17 C          63.0688   84.3998    9.9936 C.ar    1  UNL1        0.0577
     18 CL         63.5010   83.0008    9.6680 Cl      1  UNL1       -0.0822
     19 C          63.0126   85.4381    8.9125 C.ar    1  UNL1        0.0111
     20 C          62.5804   86.8372    9.2382 C.ar    1  UNL1       -0.0021
     21 C          65.1427   90.3730   14.5042 C.3     1  UNL1        0.0490
     22 C          65.9773   92.4727   15.7864 C.3     1  UNL1        0.0001
     23 C          64.9313   91.4230   15.5542 C.3     1  UNL1        0.0037
     24 C          63.6738   91.4234   16.3721 C.3     1  UNL1        0.0001
@<TRIPOS>BOND
     1    22    23    1
     2    23    24    1
     3    23    21    1
     4    21     1    1
     5     1     2    1
     6     2     3   ar
     7     3     4   ar
     8     4     5   ar
     9     5     6   ar
    10     6     7    1
    11     7     8    1
    12     8    12    1
    13    12    13    1
    14    12    14    1
    15    14    15   ar
    16    15    16   ar
    17    16    17   ar
    18    17    18    1
    19    17    19   ar
    20    19    20   ar
    21     8     9    1
    22     9    10    2
    23     9    11    2
    24     9     1    1
    25     6     2   ar
    26    20    14   ar
