@<TRIPOS>MOLECULE
*****
 53 60 0 0 0
SMALL
GASTEIGER

@<TRIPOS>ATOM
      1 C          59.8496   89.4299    7.0047 C.3     1  UNL1        0.1445
      2 C          58.5244   90.0094    6.6070 C.3     1  UNL1        0.0322
      3 C          58.4324   90.9298    5.4261 C.3     1  UNL1        0.0049
      4 C          57.1071   91.5093    5.0285 C.3     1  UNL1        0.0002
      5 C          59.6654   91.2707    4.6429 C.3     1  UNL1        0.0298
      6 C          60.9906   90.6912    5.0406 C.3     1  UNL1        0.1418
      7 O          61.0827   89.7708    6.2214 O.3     1  UNL1       -0.3537
      8 C          62.0265   91.2046    4.0850 C.3     1  UNL1        0.1373
      9 O          63.4904   90.8785    4.1128 O.3     1  UNL1       -0.3820
     10 C          61.3417   92.1015    3.0968 C.3     1  UNL1        0.0272
     11 C          62.8186   91.9637    2.8742 C.3     1  UNL1        0.0025
     12 C          61.8582   92.8862    1.9274 C.3     1  UNL1        0.0023
     13 C          63.3175   92.8454    1.5826 C.3     1  UNL1        0.0001
     14 C          63.8341   93.6302    0.4133 C.3     1  UNL1        0.0001
     15 C          62.8914   94.4557   -0.4112 C.3     1  UNL1        0.0023
     16 C          63.4080   95.2405   -1.5805 C.3     1  UNL1        0.0251
     17 C          64.3677   95.8068   -2.5846 C.3     1  UNL1        0.0024
     18 C          64.6840   94.6116   -1.1047 C.3     1  UNL1        0.0024
     19 C          62.4653   96.0661   -2.4050 C.3     1  UNL1        0.1177
     20 C          61.0060   96.1069   -2.0602 C.3     1  UNL1        0.0296
     21 C          60.4895   95.3221   -0.8909 C.3     1  UNL1        0.0025
     22 C          61.4321   94.4966   -0.0664 C.3     1  UNL1        0.0002
     23 C          59.9729   94.5373    0.2784 C.3     1  UNL1        0.0000
     24 C          60.9155   93.7118    1.1029 C.3     1  UNL1        0.0001
     25 C          59.4563   93.7526    1.4477 C.3     1  UNL1        0.0000
     26 C          58.9397   92.9678    2.6171 C.3     1  UNL1        0.0002
     27 C          59.8823   92.1423    3.4416 C.3     1  UNL1        0.0046
     28 C          58.4568   92.0857    3.9048 C.3     1  UNL1        0.0002
     29 H          63.9382   91.3397    3.3863 H       1  UNL1        0.2104
     30 C          59.9417   88.5096    8.1855 C.3     1  UNL1        0.1664
     31 C          60.4942   87.1253    8.0163 C.3     1  UNL1        0.1156
     32 C          61.6368   87.4702    8.9249 C.3     1  UNL1        0.0319
     33 C          59.3517   86.7804    7.1076 C.3     1  UNL1        0.0319
     34 O          61.0467   85.7411    7.8470 O.3     1  UNL1       -0.3843
     35 H          61.8624   85.6530    8.3645 H       1  UNL1        0.2103
     36 O          59.4814   88.9735    9.5357 O.3     1  UNL1       -0.3514
     37 C          59.4748   90.8196   11.3637 C.3     1  UNL1        0.0346
     38 C          60.1203   90.1703   10.1755 C.3     1  UNL1        0.1423
     39 O          62.9818   96.8508   -3.5743 O.3     1  UNL1       -0.3320
     40 C          62.2868   96.7654   -4.9008 C.3     1  UNL1        0.2518
     41 C          60.7932   96.6390   -4.9582 C.3     1  UNL1        0.1343
     42 N          60.0982   96.5536   -6.2847 N.3     1  UNL1       -0.2663
     43 C          60.8967   96.5946   -7.5538 C.3     1  UNL1        0.1048
     44 C          62.3902   96.7210   -7.4965 C.3     1  UNL1        0.1621
     45 O          63.0853   96.8064   -6.1700 O.3     1  UNL1       -0.3280
     46 C          58.6046   96.4272   -6.3420 C.3     1  UNL1        0.0751
     47 C          57.8564   95.8416   -5.1813 C.3     1  UNL1        0.0479
     48 C          56.9661   96.3918   -4.1068 C.3     1  UNL1        0.0748
     49 N          56.7982   95.0133   -3.5399 N.3     1  UNL1       -0.2738
     50 C          57.6884   94.4630   -4.6144 C.3     1  UNL1        0.0748
     51 C          56.0500   94.4277   -2.3793 C.3     1  UNL1        0.0576
     52 C          54.6945   94.9578   -2.0164 C.3     1  UNL1        0.0173
     53 C          56.6572   93.3119   -1.5816 C.3     1  UNL1        0.0173
@<TRIPOS>BOND
     1    37    38    1
     2    38    36    1
     3    30    36    1
     4    30     1    1
     5     1     2    1
     6     2     3    1
     7     3     4    1
     8     5     3    1
     9     5     6    1
    10     6     7    1
    11     6     8    1
    12     8     9    1
    13     8    10    1
    14    10    11    1
    15    10    12    1
    16    12    13    1
    17    13    14    1
    18    15    14    1
    19    15    16    1
    20    16    17    1
    21    16    18    1
    22    16    19    1
    23    19    39    1
    24    40    39    1
    25    40    41    1
    26    41    42    1
    27    42    46    1
    28    46    47    1
    29    47    48    1
    30    48    49    1
    31    49    51    1
    32    51    52    1
    33    51    53    1
    34    49    50    1
    35    42    43    1
    36    43    44    1
    37    44    45    1
    38    19    20    1
    39    20    21    1
    40    22    21    1
    41    22    23    1
    42    24    23    1
    43    24    25    1
    44    25    26    1
    45    26    27    1
    46    27    28    1
    47    30    31    1
    48    31    32    1
    49    31    33    1
    50    31    34    1
    51     7     1    1
    52    27    10    1
    53    27     5    1
    54    24    12    1
    55    22    15    1
    56    45    40    1
    57    24    22    1
    58    50    47    1
    59     9    29    1
    60    34    35    1
