@<TRIPOS>MOLECULE
*****
 29 32 0 0 0
SMALL
GASTEIGER

@<TRIPOS>ATOM
      1 N          62.7838   88.6098   10.9386 N.am    1  UNL1       -0.2656
      2 C          62.3024   89.4295   12.0989 C.2     1  UNL1        0.2551
      3 O          60.8316   89.5825   12.3502 O.2     1  UNL1       -0.2696
      4 H          63.7491   88.5094   10.7736 H       1  UNL1        0.1566
      5 C          63.2920   90.0962   13.0079 C.ar    1  UNL1        0.1103
      6 C          63.5018   89.7878   14.4606 C.ar    1  UNL1        0.1281
      7 N          64.5850   90.6894   14.9742 N.ar    1  UNL1       -0.1619
      8 N          65.0446   91.5552   13.8389 N.ar    1  UNL1       -0.2104
      9 C          66.0875   92.6300   13.7545 C.ar    1  UNL1        0.1049
     10 C          66.3313   93.3382   12.4549 C.ar    1  UNL1        0.0546
     11 C          65.5322   92.9717   11.2396 C.ar    1  UNL1        0.1286
     12 N          65.7760   93.6799    9.9400 N.pl3   1  UNL1       -0.3425
     13 N          64.4892   91.8968   11.3239 N.ar    1  UNL1       -0.2121
     14 C          64.2454   91.1886   12.6235 C.ar    1  UNL1        0.1710
     15 H          66.4605   94.3853    9.8846 H       1  UNL1        0.1437
     16 H          65.2515   93.4393    9.1423 H       1  UNL1        0.1437
     17 C          58.8821   87.8374    7.4656 C.3     1  UNL1        0.0540
     18 C          60.0009   87.5880    8.4332 C.ar    1  UNL1        0.0822
     19 C          60.7746   88.6368    9.1757 C.ar    1  UNL1        0.0509
     20 C          61.7943   87.9430   10.0295 C.ar    1  UNL1        0.1370
     21 N          61.6507   86.4654    9.8147 N.ar    1  UNL1       -0.2162
     22 N          60.5423   86.2461    8.8281 N.ar    1  UNL1       -0.1683
     23 C          62.4714   85.3952   10.4712 C.ar    1  UNL1        0.0850
     24 C          63.3006   84.4666    9.6344 C.ar    1  UNL1        0.0193
     25 C          64.1213   83.3963   10.2909 C.ar    1  UNL1        0.0024
     26 C          64.1128   83.2547   11.7842 C.ar    1  UNL1        0.0115
     27 C          63.2836   84.1832   12.6210 C.ar    1  UNL1        0.0592
     28 CL         63.2751   84.0415   14.1143 Cl      1  UNL1       -0.0822
     29 C          62.4629   85.2535   11.9645 C.ar    1  UNL1        0.0306
@<TRIPOS>BOND
     1    17    18    1
     2    18    19   ar
     3    19    20   ar
     4    20     1    1
     5     1     2   am
     6     2     3    2
     7     2     5    1
     8     5     6   ar
     9     6     7   ar
    10     7     8   ar
    11     8     9   ar
    12     9    10   ar
    13    10    11   ar
    14    11    12    1
    15    11    13   ar
    16    13    14   ar
    17    20    21   ar
    18    21    23    1
    19    23    24   ar
    20    24    25   ar
    21    25    26   ar
    22    26    27   ar
    23    27    28    1
    24    27    29   ar
    25    21    22   ar
    26    22    18   ar
    27    14     5   ar
    28    29    23   ar
    29    14     8   ar
    30     1     4    1
    31    12    15    1
    32    12    16    1
@<TRIPOS>MOLECULE
*****
 29 32 0 0 0
SMALL
GASTEIGER

@<TRIPOS>ATOM
      1 N          64.4453   91.6107   12.1061 N.am    1  UNL1       -0.2656
      2 C          63.6798   90.3637   12.4359 C.2     1  UNL1        0.2551
      3 O          64.0219   89.5768   13.6662 O.2     1  UNL1       -0.2696
      4 H          64.2207   92.1272   11.2986 H       1  UNL1        0.1566
      5 C          62.5720   89.9035   11.5352 C.ar    1  UNL1        0.1103
      6 C          61.6336   90.7880   10.7691 C.ar    1  UNL1        0.1281
      7 N          60.6898   89.9091   10.0030 N.ar    1  UNL1       -0.1619
      8 N          61.0449   88.4815   10.2955 N.ar    1  UNL1       -0.2104
      9 C          60.4594   87.1842    9.8221 C.ar    1  UNL1        0.1049
     10 C          61.0371   85.8834   10.2956 C.ar    1  UNL1        0.0546
     11 C          62.2004   85.8799   11.2426 C.ar    1  UNL1        0.1286
     12 N          62.7781   84.5791   11.7161 N.pl3   1  UNL1       -0.3425
     13 N          62.7860   87.1772   11.7161 N.ar    1  UNL1       -0.2121
     14 C          62.2083   88.4780   11.2426 C.ar    1  UNL1        0.1710
     15 H          62.3938   83.7276   11.4053 H       1  UNL1        0.1437
     16 H          63.5416   84.5768   12.3376 H       1  UNL1        0.1437
     17 C          67.3208   92.6177   16.4187 C.3     1  UNL1        0.0540
     18 C          66.8748   92.5338   14.9890 C.ar    1  UNL1        0.0822
     19 C          65.5846   91.9444   14.5010 C.ar    1  UNL1        0.0509
     20 C          65.5531   92.0710   13.0067 C.ar    1  UNL1        0.1370
     21 N          66.8238   92.7385   12.5711 N.ar    1  UNL1       -0.2162
     22 N          67.6406   93.0245   13.7962 N.ar    1  UNL1       -0.1683
     23 C          67.2098   93.0629   11.1584 C.ar    1  UNL1        0.0850
     24 C          68.0887   92.1238   10.3865 C.ar    1  UNL1        0.0193
     25 C          68.4748   92.4483    8.9739 C.ar    1  UNL1        0.0024
     26 C          67.9820   93.7119    8.3331 C.ar    1  UNL1        0.0115
     27 C          67.1031   94.6509    9.1049 C.ar    1  UNL1        0.0592
     28 CL         66.6103   95.9145    8.4641 Cl      1  UNL1       -0.0822
     29 C          66.7171   94.3264   10.5176 C.ar    1  UNL1        0.0306
@<TRIPOS>BOND
     1    17    18    1
     2    18    19   ar
     3    19    20   ar
     4    20     1    1
     5     1     2   am
     6     2     3    2
     7     2     5    1
     8     5     6   ar
     9     6     7   ar
    10     7     8   ar
    11     8     9   ar
    12     9    10   ar
    13    10    11   ar
    14    11    12    1
    15    11    13   ar
    16    13    14   ar
    17    20    21   ar
    18    21    23    1
    19    23    24   ar
    20    24    25   ar
    21    25    26   ar
    22    26    27   ar
    23    27    28    1
    24    27    29   ar
    25    21    22   ar
    26    22    18   ar
    27    14     5   ar
    28    29    23   ar
    29    14     8   ar
    30     1     4    1
    31    12    15    1
    32    12    16    1
@<TRIPOS>MOLECULE
*****
 29 32 0 0 0
SMALL
GASTEIGER

@<TRIPOS>ATOM
      1 N          64.5330   89.0937   14.7179 N.am    1  UNL1       -0.2656
      2 C          63.5803   88.9959   15.8724 C.2     1  UNL1        0.2551
      3 O          63.0178   90.2425   16.4884 O.2     1  UNL1       -0.2696
      4 H          64.9021   88.2755   14.3136 H       1  UNL1        0.1566
      5 C          63.1900   87.6513   16.4108 C.ar    1  UNL1        0.1103
      6 C          62.6899   87.3675   17.7961 C.ar    1  UNL1        0.1281
      7 N          62.4223   85.8952   17.8998 N.ar    1  UNL1       -0.1619
      8 N          62.7569   85.2690   16.5785 N.ar    1  UNL1       -0.2104
      9 C          62.6909   83.8508   16.0944 C.ar    1  UNL1        0.1049
     10 C          63.0994   83.5179   14.6900 C.ar    1  UNL1        0.0546
     11 C          63.5739   84.6032   13.7697 C.ar    1  UNL1        0.1286
     12 N          63.9824   84.2703   12.3653 N.pl3   1  UNL1       -0.3425
     13 N          63.6400   86.0215   14.2538 N.ar    1  UNL1       -0.2121
     14 C          63.2315   86.3544   15.6582 C.ar    1  UNL1        0.1710
     15 H          63.9391   83.3395   12.0476 H       1  UNL1        0.1437
     16 H          64.2939   84.9826   11.7613 H       1  UNL1        0.1437
     17 C          66.7744   93.8494   14.2282 C.3     1  UNL1        0.0540
     18 C          65.9535   92.6242   13.9544 C.ar    1  UNL1        0.0822
     19 C          65.8479   91.4178   14.8394 C.ar    1  UNL1        0.0509
     20 C          64.9232   90.4383   14.1795 C.ar    1  UNL1        0.1370
     21 N          64.4574   91.0393   12.8865 N.ar    1  UNL1       -0.2162
     22 N          65.0941   92.3903   12.7475 N.ar    1  UNL1       -0.1683
     23 C          63.5194   90.4014   11.9050 C.ar    1  UNL1        0.0850
     24 C          62.9832   91.1987   10.7531 C.ar    1  UNL1        0.0193
     25 C          62.0452   90.5608    9.7716 C.ar    1  UNL1        0.0024
     26 C          61.6435   89.1256    9.9421 C.ar    1  UNL1        0.0115
     27 C          62.1797   88.3284   11.0940 C.ar    1  UNL1        0.0592
     28 CL         61.7780   86.8933   11.2644 Cl      1  UNL1       -0.0822
     29 C          63.1177   88.9663   12.0754 C.ar    1  UNL1        0.0306
@<TRIPOS>BOND
     1    17    18    1
     2    18    19   ar
     3    19    20   ar
     4    20     1    1
     5     1     2   am
     6     2     3    2
     7     2     5    1
     8     5     6   ar
     9     6     7   ar
    10     7     8   ar
    11     8     9   ar
    12     9    10   ar
    13    10    11   ar
    14    11    12    1
    15    11    13   ar
    16    13    14   ar
    17    20    21   ar
    18    21    23    1
    19    23    24   ar
    20    24    25   ar
    21    25    26   ar
    22    26    27   ar
    23    27    28    1
    24    27    29   ar
    25    21    22   ar
    26    22    18   ar
    27    14     5   ar
    28    29    23   ar
    29    14     8   ar
    30     1     4    1
    31    12    15    1
    32    12    16    1
@<TRIPOS>MOLECULE
*****
 29 32 0 0 0
SMALL
GASTEIGER

@<TRIPOS>ATOM
      1 N          63.7757   87.1437   13.4854 N.am    1  UNL1       -0.2656
      2 C          63.6006   86.2590   14.6840 C.2     1  UNL1        0.2551
      3 O          63.5633   86.8574   16.0589 O.2     1  UNL1       -0.2696
      4 H          63.8002   86.7509   12.5830 H       1  UNL1        0.1566
      5 C          63.4629   84.7757   14.5076 C.ar    1  UNL1        0.1103
      6 C          63.2988   83.7686   15.6069 C.ar    1  UNL1        0.1281
      7 N          63.1996   82.4097   14.9796 N.ar    1  UNL1       -0.1619
      8 N          63.3024   82.5770   13.4925 N.ar    1  UNL1       -0.2104
      9 C          63.2688   81.5867   12.3663 C.ar    1  UNL1        0.1049
     10 C          63.3979   82.0588   10.9484 C.ar    1  UNL1        0.0546
     11 C          63.5607   83.5212   10.6567 C.ar    1  UNL1        0.1286
     12 N          63.6898   83.9933    9.2388 N.pl3   1  UNL1       -0.3425
     13 N          63.5942   84.5115   11.7829 N.ar    1  UNL1       -0.2121
     14 C          63.4651   84.0394   13.2008 C.ar    1  UNL1        0.1710
     15 H          63.6678   83.3433    8.4996 H       1  UNL1        0.1437
     16 H          63.7966   84.9530    9.0473 H       1  UNL1        0.1437
     17 C          65.2985   91.8663   15.2906 C.3     1  UNL1        0.0540
     18 C          64.6134   90.7976   14.4915 C.ar    1  UNL1        0.0822
     19 C          64.7840   89.3180   14.6690 C.ar    1  UNL1        0.0509
     20 C          63.9134   88.6269   13.6617 C.ar    1  UNL1        0.1370
     21 N          63.2048   89.6795   12.8618 N.ar    1  UNL1       -0.2162
     22 N          63.6374   91.0210   13.3746 N.ar    1  UNL1       -0.1683
     23 C          62.2339   89.4336   11.7450 C.ar    1  UNL1        0.0850
     24 C          61.1173   90.4035   11.4949 C.ar    1  UNL1        0.0193
     25 C          60.1465   90.1576   10.3781 C.ar    1  UNL1        0.0024
     26 C          60.2923   88.9419    9.5116 C.ar    1  UNL1        0.0115
     27 C          61.4089   87.9721    9.7618 C.ar    1  UNL1        0.0592
     28 CL         61.5548   86.7564    8.8952 Cl      1  UNL1       -0.0822
     29 C          62.3797   88.2180   10.8785 C.ar    1  UNL1        0.0306
@<TRIPOS>BOND
     1    17    18    1
     2    18    19   ar
     3    19    20   ar
     4    20     1    1
     5     1     2   am
     6     2     3    2
     7     2     5    1
     8     5     6   ar
     9     6     7   ar
    10     7     8   ar
    11     8     9   ar
    12     9    10   ar
    13    10    11   ar
    14    11    12    1
    15    11    13   ar
    16    13    14   ar
    17    20    21   ar
    18    21    23    1
    19    23    24   ar
    20    24    25   ar
    21    25    26   ar
    22    26    27   ar
    23    27    28    1
    24    27    29   ar
    25    21    22   ar
    26    22    18   ar
    27    14     5   ar
    28    29    23   ar
    29    14     8   ar
    30     1     4    1
    31    12    15    1
    32    12    16    1
@<TRIPOS>MOLECULE
*****
 29 32 0 0 0
SMALL
GASTEIGER

@<TRIPOS>ATOM
      1 N          62.4214   88.7815   11.0636 N.am    1  UNL1       -0.2656
      2 C          62.8524   90.1981   10.8237 C.2     1  UNL1        0.2551
      3 O          62.4310   90.9085    9.5716 O.2     1  UNL1       -0.2696
      4 H          62.6980   88.3153   11.8854 H       1  UNL1        0.1566
      5 C          63.7048   90.9043   11.8360 C.ar    1  UNL1        0.1103
      6 C          64.7119   91.9773   11.5458 C.ar    1  UNL1        0.1281
      7 N          65.3293   92.3975   12.8467 N.ar    1  UNL1       -0.1619
      8 N          64.7038   91.5842   13.9408 N.ar    1  UNL1       -0.2104
      9 C          64.9187   91.5647   15.4252 C.ar    1  UNL1        0.1049
     10 C          64.1296   90.6222   16.2850 C.ar    1  UNL1        0.0546
     11 C          63.1256   89.6993   15.6603 C.ar    1  UNL1        0.1286
     12 N          62.3365   88.7568   16.5201 N.pl3   1  UNL1       -0.3425
     13 N          62.9107   89.7188   14.1759 N.ar    1  UNL1       -0.2121
     14 C          63.6998   90.6612   13.3161 C.ar    1  UNL1        0.1710
     15 H          62.4776   88.7440   17.4943 H       1  UNL1        0.1437
     16 H          61.6776   88.1511   16.1101 H       1  UNL1        0.1437
     17 C          58.8988   87.8418    7.2440 C.3     1  UNL1        0.0540
     18 C          59.9497   87.6434    8.2957 C.ar    1  UNL1        0.0822
     19 C          60.5705   88.7197    9.1360 C.ar    1  UNL1        0.0509
     20 C          61.5689   88.0753   10.0513 C.ar    1  UNL1        0.1370
     21 N          61.5652   86.6006    9.7768 N.ar    1  UNL1       -0.2162
     22 N          60.5645   86.3337    8.6917 N.ar    1  UNL1       -0.1683
     23 C          62.4133   85.5733   10.4662 C.ar    1  UNL1        0.0850
     24 C          63.2277   84.6076    9.6572 C.ar    1  UNL1        0.0193
     25 C          64.0758   83.5803   10.3467 C.ar    1  UNL1        0.0024
     26 C          64.1095   83.5186   11.8451 C.ar    1  UNL1        0.0115
     27 C          63.2952   84.4842   12.6540 C.ar    1  UNL1        0.0592
     28 CL         63.3289   84.4226   14.1524 Cl      1  UNL1       -0.0822
     29 C          62.4471   85.5116   11.9645 C.ar    1  UNL1        0.0306
@<TRIPOS>BOND
     1    17    18    1
     2    18    19   ar
     3    19    20   ar
     4    20     1    1
     5     1     2   am
     6     2     3    2
     7     2     5    1
     8     5     6   ar
     9     6     7   ar
    10     7     8   ar
    11     8     9   ar
    12     9    10   ar
    13    10    11   ar
    14    11    12    1
    15    11    13   ar
    16    13    14   ar
    17    20    21   ar
    18    21    23    1
    19    23    24   ar
    20    24    25   ar
    21    25    26   ar
    22    26    27   ar
    23    27    28    1
    24    27    29   ar
    25    21    22   ar
    26    22    18   ar
    27    14     5   ar
    28    29    23   ar
    29    14     8   ar
    30     1     4    1
    31    12    15    1
    32    12    16    1
@<TRIPOS>MOLECULE
*****
 29 32 0 0 0
SMALL
GASTEIGER

@<TRIPOS>ATOM
      1 N          63.7684   89.0899   12.8537 N.am    1  UNL1       -0.2656
      2 C          63.0693   89.9501   13.8643 C.2     1  UNL1        0.2551
      3 O          61.5705   89.9897   13.9070 O.2     1  UNL1       -0.2696
      4 H          64.7522   89.0639   12.8257 H       1  UNL1        0.1566
      5 C          63.8692   90.7708   14.8322 C.ar    1  UNL1        0.1103
      6 C          63.4499   91.1537   16.2204 C.ar    1  UNL1        0.1281
      7 N          64.5504   91.9722   16.8279 N.ar    1  UNL1       -0.1619
      8 N          65.6499   92.0951   15.8151 N.ar    1  UNL1       -0.2104
      9 C          66.9800   92.7872   15.8565 C.ar    1  UNL1        0.1049
     10 C          67.8892   92.7367   14.6645 C.ar    1  UNL1        0.0546
     11 C          67.4683   91.9942   13.4310 C.ar    1  UNL1        0.1286
     12 N          68.3775   91.9438   12.2390 N.pl3   1  UNL1       -0.3425
     13 N          66.1381   91.3021   13.3895 N.ar    1  UNL1       -0.2121
     14 C          65.2289   91.3525   14.5815 C.ar    1  UNL1        0.1710
     15 H          69.2505   92.3980   12.2663 H       1  UNL1        0.1437
     16 H          68.1012   91.4564   11.4295 H       1  UNL1        0.1437
     17 C          60.7433   87.6885    8.7591 C.3     1  UNL1        0.0540
     18 C          61.5782   87.6251   10.0037 C.ar    1  UNL1        0.0822
     19 C          62.2401   88.7880   10.6816 C.ar    1  UNL1        0.0509
     20 C          62.9686   88.2692   11.8858 C.ar    1  UNL1        0.1370
     21 N          62.7571   86.7857   11.9521 N.ar    1  UNL1       -0.2162
     22 N          61.8977   86.3876   10.7889 N.ar    1  UNL1       -0.1683
     23 C          63.3081   85.8624   12.9980 C.ar    1  UNL1        0.0850
     24 C          64.1225   86.4132   14.1309 C.ar    1  UNL1        0.0193
     25 C          64.6736   85.4899   15.1767 C.ar    1  UNL1        0.0024
     26 C          64.4101   84.0157   15.0897 C.ar    1  UNL1        0.0115
     27 C          63.5957   83.4649   13.9569 C.ar    1  UNL1        0.0592
     28 CL         63.3323   81.9907   13.8699 Cl      1  UNL1       -0.0822
     29 C          63.0447   84.3883   12.9110 C.ar    1  UNL1        0.0306
@<TRIPOS>BOND
     1    17    18    1
     2    18    19   ar
     3    19    20   ar
     4    20     1    1
     5     1     2   am
     6     2     3    2
     7     2     5    1
     8     5     6   ar
     9     6     7   ar
    10     7     8   ar
    11     8     9   ar
    12     9    10   ar
    13    10    11   ar
    14    11    12    1
    15    11    13   ar
    16    13    14   ar
    17    20    21   ar
    18    21    23    1
    19    23    24   ar
    20    24    25   ar
    21    25    26   ar
    22    26    27   ar
    23    27    28    1
    24    27    29   ar
    25    21    22   ar
    26    22    18   ar
    27    14     5   ar
    28    29    23   ar
    29    14     8   ar
    30     1     4    1
    31    12    15    1
    32    12    16    1
@<TRIPOS>MOLECULE
*****
 29 32 0 0 0
SMALL
GASTEIGER

@<TRIPOS>ATOM
      1 N          63.0210   87.0129   12.5704 N.am    1  UNL1       -0.2656
      2 C          63.6072   86.6061   13.8899 C.2     1  UNL1        0.2551
      3 O          64.3134   87.6193   14.7411 O.2     1  UNL1       -0.2696
      4 H          62.5574   86.3478   12.0118 H       1  UNL1        0.1566
      5 C          63.4871   85.1861   14.3581 C.ar    1  UNL1        0.1103
      6 C          63.2658   84.7399   15.7729 C.ar    1  UNL1        0.1281
      7 N          63.2091   83.2410   15.7827 N.ar    1  UNL1       -0.1619
      8 N          63.3954   82.7608   14.3740 N.ar    1  UNL1       -0.2104
      9 C          63.4307   81.3842   13.7792 C.ar    1  UNL1        0.1049
     10 C          63.6379   81.2098   12.3039 C.ar    1  UNL1        0.0546
     11 C          63.8097   82.4119   11.4233 C.ar    1  UNL1        0.1286
     12 N          64.0168   82.2374    9.9479 N.pl3   1  UNL1       -0.3425
     13 N          63.7743   83.7885   12.0181 N.ar    1  UNL1       -0.2121
     14 C          63.5671   83.9630   13.4934 C.ar    1  UNL1        0.1710
     15 H          64.0400   81.3339    9.5575 H       1  UNL1        0.1437
     16 H          64.1296   83.0264    9.3700 H       1  UNL1        0.1437
     17 C          64.3246   92.1232   12.3152 C.3     1  UNL1        0.0540
     18 C          63.7403   90.7818   11.9849 C.ar    1  UNL1        0.0822
     19 C          63.8822   89.5326   12.8030 C.ar    1  UNL1        0.0509
     20 C          63.1410   88.4328   12.1022 C.ar    1  UNL1        0.1370
     21 N          62.5410   89.0023   10.8509 N.ar    1  UNL1       -0.2162
     22 N          62.9114   90.4541   10.7784 N.ar    1  UNL1       -0.1683
     23 C          61.7156   88.2518    9.8482 C.ar    1  UNL1        0.0850
     24 C          61.9023   86.7730    9.6794 C.ar    1  UNL1        0.0193
     25 C          61.0769   86.0225    8.6767 C.ar    1  UNL1        0.0024
     26 C          60.0648   86.7508    7.8427 C.ar    1  UNL1        0.0115
     27 C          59.8782   88.2295    8.0115 C.ar    1  UNL1        0.0592
     28 CL         58.8662   88.9578    7.1776 Cl      1  UNL1       -0.0822
     29 C          60.7036   88.9800    9.0142 C.ar    1  UNL1        0.0306
@<TRIPOS>BOND
     1    17    18    1
     2    18    19   ar
     3    19    20   ar
     4    20     1    1
     5     1     2   am
     6     2     3    2
     7     2     5    1
     8     5     6   ar
     9     6     7   ar
    10     7     8   ar
    11     8     9   ar
    12     9    10   ar
    13    10    11   ar
    14    11    12    1
    15    11    13   ar
    16    13    14   ar
    17    20    21   ar
    18    21    23    1
    19    23    24   ar
    20    24    25   ar
    21    25    26   ar
    22    26    27   ar
    23    27    28    1
    24    27    29   ar
    25    21    22   ar
    26    22    18   ar
    27    14     5   ar
    28    29    23   ar
    29    14     8   ar
    30     1     4    1
    31    12    15    1
    32    12    16    1
@<TRIPOS>MOLECULE
*****
 29 32 0 0 0
SMALL
GASTEIGER

@<TRIPOS>ATOM
      1 N          64.0052   88.4557   13.6419 N.am    1  UNL1       -0.2656
      2 C          63.8951   88.8395   15.0877 C.2     1  UNL1        0.2551
      3 O          63.4521   87.8261   16.1011 O.2     1  UNL1       -0.2696
      4 H          64.2959   89.1208   12.9768 H       1  UNL1        0.1566
      5 C          64.2279   90.2367   15.5202 C.ar    1  UNL1        0.1103
      6 C          63.4575   91.0608   16.5087 C.ar    1  UNL1        0.1281
      7 N          64.1431   92.3885   16.6395 N.ar    1  UNL1       -0.1619
      8 N          65.3373   92.3850   15.7319 N.ar    1  UNL1       -0.2104
      9 C          66.3838   93.4209   15.4459 C.ar    1  UNL1        0.1049
     10 C          67.4826   93.1269   14.4681 C.ar    1  UNL1        0.0546
     11 C          67.5351   91.7970   13.7763 C.ar    1  UNL1        0.1286
     12 N          68.6340   91.5030   12.7985 N.pl3   1  UNL1       -0.3425
     13 N          66.4886   90.7610   14.0623 N.ar    1  UNL1       -0.2121
     14 C          65.3897   91.0550   15.0401 C.ar    1  UNL1        0.1710
     15 H          69.3208   92.1829   12.6108 H       1  UNL1        0.1437
     16 H          68.6684   90.6302   12.3445 H       1  UNL1        0.1437
     17 C          63.7820   83.1847   13.4250 C.3     1  UNL1        0.0540
     18 C          63.5698   84.6357   13.1096 C.ar    1  UNL1        0.0822
     19 C          64.1395   85.7959   13.8708 C.ar    1  UNL1        0.0509
     20 C          63.6724   87.0585   13.2093 C.ar    1  UNL1        0.1370
     21 N          62.8141   86.6787   12.0392 N.ar    1  UNL1       -0.2162
     22 N          62.7507   85.1813   11.9776 N.ar    1  UNL1       -0.1683
     23 C          62.1379   87.6293   11.0963 C.ar    1  UNL1        0.0850
     24 C          62.5100   89.0825   11.1014 C.ar    1  UNL1        0.0193
     25 C          61.8338   90.0331   10.1585 C.ar    1  UNL1        0.0024
     26 C          60.7856   89.5306    9.2105 C.ar    1  UNL1        0.0115
     27 C          60.4135   88.0775    9.2054 C.ar    1  UNL1        0.0592
     28 CL         59.3653   87.5749    8.2573 Cl      1  UNL1       -0.0822
     29 C          61.0897   87.1268   10.1483 C.ar    1  UNL1        0.0306
@<TRIPOS>BOND
     1    17    18    1
     2    18    19   ar
     3    19    20   ar
     4    20     1    1
     5     1     2   am
     6     2     3    2
     7     2     5    1
     8     5     6   ar
     9     6     7   ar
    10     7     8   ar
    11     8     9   ar
    12     9    10   ar
    13    10    11   ar
    14    11    12    1
    15    11    13   ar
    16    13    14   ar
    17    20    21   ar
    18    21    23    1
    19    23    24   ar
    20    24    25   ar
    21    25    26   ar
    22    26    27   ar
    23    27    28    1
    24    27    29   ar
    25    21    22   ar
    26    22    18   ar
    27    14     5   ar
    28    29    23   ar
    29    14     8   ar
    30     1     4    1
    31    12    15    1
    32    12    16    1
@<TRIPOS>MOLECULE
*****
 29 32 0 0 0
SMALL
GASTEIGER

@<TRIPOS>ATOM
      1 N          63.6022   88.6101   12.2768 N.am    1  UNL1       -0.2656
      2 C          62.1842   88.6975   11.7954 C.2     1  UNL1        0.2551
      3 O          61.3236   89.8563   12.2036 O.2     1  UNL1       -0.2696
      4 H          64.1670   87.8495   12.0089 H       1  UNL1        0.1566
      5 C          61.6269   87.6262   10.9056 C.ar    1  UNL1        0.1103
      6 C          61.7411   86.1473   11.1284 C.ar    1  UNL1        0.1281
      7 N          61.0423   85.4529    9.9973 N.ar    1  UNL1       -0.1619
      8 N          60.4961   86.5025    9.0754 N.ar    1  UNL1       -0.2104
      9 C          59.7165   86.4088    7.7974 C.ar    1  UNL1        0.1049
     10 C          59.2982   87.6584    7.0807 C.ar    1  UNL1        0.0546
     11 C          59.6595   89.0016    7.6421 C.ar    1  UNL1        0.1286
     12 N          59.2411   90.2512    6.9254 N.pl3   1  UNL1       -0.3425
     13 N          60.4391   89.0954    8.9202 N.ar    1  UNL1       -0.2121
     14 C          60.8575   87.8458    9.6369 C.ar    1  UNL1        0.1710
     15 H          58.7295   90.1897    6.0866 H       1  UNL1        0.1437
     16 H          59.4783   91.1328    7.2938 H       1  UNL1        0.1437
     17 C          65.7466   93.1356   13.9505 C.3     1  UNL1        0.0540
     18 C          65.1453   91.7615   13.9358 C.ar    1  UNL1        0.0822
     19 C          64.6942   91.0094   12.7189 C.ar    1  UNL1        0.0509
     20 C          64.1596   89.6813   13.1666 C.ar    1  UNL1        0.1370
     21 N          64.2802   89.6126   14.6601 N.ar    1  UNL1       -0.2162
     22 N          64.8894   90.8983   15.1356 N.ar    1  UNL1       -0.1683
     23 C          63.8646   88.4606   15.5262 C.ar    1  UNL1        0.0850
     24 C          63.1377   88.7142   16.8137 C.ar    1  UNL1        0.0193
     25 C          62.7221   87.5621   17.6798 C.ar    1  UNL1        0.0024
     26 C          63.0333   86.1565   17.2583 C.ar    1  UNL1        0.0115
     27 C          63.7601   85.9030   15.9709 C.ar    1  UNL1        0.0592
     28 CL         64.0713   84.4974   15.5495 Cl      1  UNL1       -0.0822
     29 C          64.1757   87.0551   15.1049 C.ar    1  UNL1        0.0306
@<TRIPOS>BOND
     1    17    18    1
     2    18    19   ar
     3    19    20   ar
     4    20     1    1
     5     1     2   am
     6     2     3    2
     7     2     5    1
     8     5     6   ar
     9     6     7   ar
    10     7     8   ar
    11     8     9   ar
    12     9    10   ar
    13    10    11   ar
    14    11    12    1
    15    11    13   ar
    16    13    14   ar
    17    20    21   ar
    18    21    23    1
    19    23    24   ar
    20    24    25   ar
    21    25    26   ar
    22    26    27   ar
    23    27    28    1
    24    27    29   ar
    25    21    22   ar
    26    22    18   ar
    27    14     5   ar
    28    29    23   ar
    29    14     8   ar
    30     1     4    1
    31    12    15    1
    32    12    16    1
