@<TRIPOS>MOLECULE
*****
 37 38 0 0 0
SMALL
GASTEIGER

@<TRIPOS>ATOM
      1 P          59.6983   87.7901    8.1618 P.3     1  UNL1        0.3697
      2 O          59.5125   86.3374    7.8373 O.2     1  UNL1       -0.2553
      3 O          58.4208   88.1135    7.4453 O.3     1  UNL1       -0.3218
      4 H          58.0321   87.2975    7.0930 H       1  UNL1        0.2198
      5 C          59.8840   89.2427    8.4862 C.3     1  UNL1        0.2579
      6 O          61.0303   89.6776    9.3505 O.3     1  UNL1       -0.3426
      7 C          60.7919   90.0386   10.7867 C.3     1  UNL1        0.1387
      8 C          59.4808   90.6374   11.2020 C.3     1  UNL1        0.0342
      9 C          61.8648   89.8008   11.8079 C.3     1  UNL1        0.1384
     10 N          63.0693   90.6936   11.8521 N.ar    1  UNL1       -0.2918
     11 C          63.7630   91.2976   10.6673 C.ar    1  UNL1        0.1798
     12 N          64.9140   92.1166   11.1719 N.ar    1  UNL1       -0.2195
     13 C          64.9316   92.0187   12.6686 C.ar    1  UNL1        0.1481
     14 C          65.8384   92.6167   13.7030 C.ar    1  UNL1        0.1480
     15 N          66.9785   93.4961   13.2826 N.pl3   1  UNL1       -0.3413
     16 N          65.6052   92.3353   15.1577 N.ar    1  UNL1       -0.2078
     17 C          64.4650   91.4559   15.5781 C.ar    1  UNL1        0.2015
     18 N          63.5582   90.8578   14.5438 N.ar    1  UNL1       -0.2048
     19 C          63.7915   91.1392   13.0890 C.ar    1  UNL1        0.1674
     20 H          67.1316   93.6808   12.3278 H       1  UNL1        0.1438
     21 H          67.5737   93.8886   13.9615 H       1  UNL1        0.1438
     22 O          60.9758   87.4667    8.8783 O.3     1  UNL1       -0.2926
     23 C          61.1884   86.0968    9.4512 C.3     1  UNL1        0.1514
     24 C          61.4695   85.9315   10.9153 C.3     1  UNL1        0.0326
     25 C          62.6317   85.0973   11.3663 C.3     1  UNL1        0.0026
     26 C          63.3172   84.1800   10.3974 C.3     1  UNL1        0.0001
     27 C          64.3803   83.2383   10.8799 C.3     1  UNL1        0.0000
     28 C          64.0825   81.7739   11.0096 C.3     1  UNL1        0.0000
     29 C          62.7731   81.3229   11.5860 C.3     1  UNL1        0.0000
     30 C          62.7272   80.7111   12.9548 C.3     1  UNL1        0.0000
     31 C          61.8653   81.3207   14.0203 C.3     1  UNL1        0.0000
     32 C          62.0529   82.7582   14.4056 C.3     1  UNL1        0.0000
     33 C          63.2903   83.1825   15.1395 C.3     1  UNL1        0.0010
     34 C          64.2609   84.1247   14.4912 C.3     1  UNL1        0.0140
     35 C          64.3609   85.5435   14.9675 C.3     1  UNL1        0.0770
     36 C          62.8980   86.4020   17.4419 C.1     1  UNL1       -0.0141
     37 C          63.6295   85.9727   16.2047 C.1     1  UNL1       -0.0779
@<TRIPOS>BOND
     1    36    37    3
     2    37    35    1
     3    35    34    1
     4    34    33    1
     5    33    32    1
     6    32    31    1
     7    31    30    1
     8    30    29    1
     9    29    28    1
    10    28    27    1
    11    27    26    1
    12    26    25    1
    13    25    24    1
    14    24    23    1
    15    23    22    1
    16    22     1    1
    17     1     2    2
    18     1     3    1
    19     1     5    1
    20     5     6    1
    21     6     7    1
    22     7     8    1
    23     7     9    1
    24     9    10    1
    25    10    11   ar
    26    11    12   ar
    27    12    13   ar
    28    13    14   ar
    29    14    15    1
    30    14    16   ar
    31    16    17   ar
    32    17    18   ar
    33    18    19   ar
    34    19    10   ar
    35    19    13   ar
    36     3     4    1
    37    15    20    1
    38    15    21    1
@<TRIPOS>MOLECULE
*****
 37 38 0 0 0
SMALL
GASTEIGER

@<TRIPOS>ATOM
      1 P          62.1807   89.3712   11.2847 P.3     1  UNL1        0.3697
      2 O          61.3041   89.5365   10.0787 O.2     1  UNL1       -0.2553
      3 O          62.0929   90.8448   11.5504 O.3     1  UNL1       -0.3218
      4 H          61.5396   91.2633   10.8725 H       1  UNL1        0.2198
      5 C          63.0572   89.2059   12.4906 C.3     1  UNL1        0.2579
      6 O          62.6896   89.8740   13.7823 O.3     1  UNL1       -0.3426
      7 C          63.7041   89.9922   14.8808 C.3     1  UNL1        0.1387
      8 C          63.2737   89.8862   16.3138 C.3     1  UNL1        0.0342
      9 C          65.1492   90.2165   14.5464 C.3     1  UNL1        0.1384
     10 N          65.6344   91.5936   14.2025 N.ar    1  UNL1       -0.2918
     11 C          66.3372   92.5383   15.1318 C.ar    1  UNL1        0.1798
     12 N          66.6392   93.7963   14.3725 N.ar    1  UNL1       -0.2195
     13 C          66.1230   93.6290   12.9741 C.ar    1  UNL1        0.1481
     14 C          66.1382   94.5403   11.7829 C.ar    1  UNL1        0.1480
     15 N          66.7592   95.9017   11.8880 N.pl3   1  UNL1       -0.3413
     16 N          65.5324   94.0904   10.4866 N.ar    1  UNL1       -0.2078
     17 C          64.9114   92.7290   10.3815 C.ar    1  UNL1        0.2015
     18 N          64.8962   91.8176   11.5727 N.ar    1  UNL1       -0.2048
     19 C          65.5020   92.2676   12.8690 C.ar    1  UNL1        0.1674
     20 H          67.1568   96.1970   12.7388 H       1  UNL1        0.1438
     21 H          66.7692   96.4999   11.1061 H       1  UNL1        0.1438
     22 O          62.2684   87.8976   11.0189 O.3     1  UNL1       -0.2926
     23 C          61.0159   87.0916   10.8410 C.3     1  UNL1        0.1514
     24 C          60.8979   86.1320    9.6942 C.3     1  UNL1        0.0326
     25 C          61.9439   86.1159    8.6192 C.3     1  UNL1        0.0026
     26 C          63.1017   85.1669    8.7135 C.3     1  UNL1        0.0001
     27 C          63.4375   84.5214   10.0252 C.3     1  UNL1        0.0000
     28 C          63.8540   83.0811   10.0675 C.3     1  UNL1        0.0000
     29 C          64.3674   82.4859   11.3452 C.3     1  UNL1        0.0000
     30 C          63.4336   81.7454   12.2560 C.3     1  UNL1        0.0000
     31 C          62.4788   82.5042   13.1293 C.3     1  UNL1        0.0000
     32 C          62.8073   82.7371   14.5743 C.3     1  UNL1        0.0000
     33 C          64.0382   83.5082   14.9487 C.3     1  UNL1        0.0010
     34 C          64.3462   84.8074   14.2652 C.3     1  UNL1        0.0140
     35 C          64.3517   86.0853   15.0506 C.3     1  UNL1        0.0770
     36 C          62.7145   86.3145   17.5540 C.1     1  UNL1       -0.0141
     37 C          63.5331   86.1999   16.3023 C.1     1  UNL1       -0.0779
@<TRIPOS>BOND
     1    36    37    3
     2    37    35    1
     3    35    34    1
     4    34    33    1
     5    33    32    1
     6    32    31    1
     7    31    30    1
     8    30    29    1
     9    29    28    1
    10    28    27    1
    11    27    26    1
    12    26    25    1
    13    25    24    1
    14    24    23    1
    15    23    22    1
    16    22     1    1
    17     1     2    2
    18     1     3    1
    19     1     5    1
    20     5     6    1
    21     6     7    1
    22     7     8    1
    23     7     9    1
    24     9    10    1
    25    10    11   ar
    26    11    12   ar
    27    12    13   ar
    28    13    14   ar
    29    14    15    1
    30    14    16   ar
    31    16    17   ar
    32    17    18   ar
    33    18    19   ar
    34    19    10   ar
    35    19    13   ar
    36     3     4    1
    37    15    20    1
    38    15    21    1
@<TRIPOS>MOLECULE
*****
 37 38 0 0 0
SMALL
GASTEIGER

@<TRIPOS>ATOM
      1 P          63.4659   90.2374   15.2607 P.3     1  UNL1        0.3697
      2 O          62.2681   89.5630   15.8610 O.2     1  UNL1       -0.2553
      3 O          63.6305   91.0548   16.5076 O.3     1  UNL1       -0.3218
      4 H          62.9357   90.8199   17.1423 H       1  UNL1        0.2198
      5 C          64.6638   90.9118   14.6605 C.3     1  UNL1        0.2579
      6 O          65.5858   91.7154   15.5289 O.3     1  UNL1       -0.3426
      7 C          66.9804   92.0160   15.0656 C.3     1  UNL1        0.1387
      8 C          67.9986   92.5335   16.0380 C.3     1  UNL1        0.0342
      9 C          67.3569   91.7992   13.6298 C.3     1  UNL1        0.1384
     10 N          66.9791   92.8160   12.5937 N.ar    1  UNL1       -0.2918
     11 C          66.0541   93.9793   12.7961 C.ar    1  UNL1        0.1798
     12 N          65.9633   94.7301   11.5007 N.ar    1  UNL1       -0.2195
     13 C          66.8323   94.0308   10.4977 C.ar    1  UNL1        0.1481
     14 C          67.1330   94.3185    9.0566 C.ar    1  UNL1        0.1480
     15 N          66.5052   95.5015    8.3811 N.pl3   1  UNL1       -0.3413
     16 N          68.0615   93.4231    8.2911 N.ar    1  UNL1       -0.2078
     17 C          68.6893   92.2401    8.9666 C.ar    1  UNL1        0.2015
     18 N          68.3886   91.9524   10.4076 N.ar    1  UNL1       -0.2048
     19 C          67.4601   92.8478   11.1732 C.ar    1  UNL1        0.1674
     20 H          65.8958   96.0892    8.8836 H       1  UNL1        0.1438
     21 H          66.7026   95.6903    7.4353 H       1  UNL1        0.1438
     22 O          63.3013   89.4200   14.0138 O.3     1  UNL1       -0.2926
     23 C          63.6213   90.0192   12.6765 C.3     1  UNL1        0.1514
     24 C          62.5123   90.4175   11.7483 C.3     1  UNL1        0.0326
     25 C          61.3440   89.5004   11.5387 C.3     1  UNL1        0.0026
     26 C          60.3934   89.7442   10.4043 C.3     1  UNL1        0.0001
     27 C          60.5730   89.0159    9.1054 C.3     1  UNL1        0.0000
     28 C          59.8880   87.7002    8.8822 C.3     1  UNL1        0.0000
     29 C          60.6970   86.4783    8.5617 C.3     1  UNL1        0.0000
     30 C          61.7801   86.0292    9.4973 C.3     1  UNL1        0.0000
     31 C          61.5110   85.9439   10.9704 C.3     1  UNL1        0.0000
     32 C          62.3597   85.0626   11.8381 C.3     1  UNL1        0.0000
     33 C          63.1099   83.9131   11.2333 C.3     1  UNL1        0.0010
     34 C          64.2815   83.3183   11.9570 C.3     1  UNL1        0.0140
     35 C          64.1426   81.9945   12.6485 C.3     1  UNL1        0.0770
     36 C          61.5141   81.2025   13.8582 C.1     1  UNL1       -0.0141
     37 C          62.8283   81.5985   13.2533 C.1     1  UNL1       -0.0779
@<TRIPOS>BOND
     1    36    37    3
     2    37    35    1
     3    35    34    1
     4    34    33    1
     5    33    32    1
     6    32    31    1
     7    31    30    1
     8    30    29    1
     9    29    28    1
    10    28    27    1
    11    27    26    1
    12    26    25    1
    13    25    24    1
    14    24    23    1
    15    23    22    1
    16    22     1    1
    17     1     2    2
    18     1     3    1
    19     1     5    1
    20     5     6    1
    21     6     7    1
    22     7     8    1
    23     7     9    1
    24     9    10    1
    25    10    11   ar
    26    11    12   ar
    27    12    13   ar
    28    13    14   ar
    29    14    15    1
    30    14    16   ar
    31    16    17   ar
    32    17    18   ar
    33    18    19   ar
    34    19    10   ar
    35    19    13   ar
    36     3     4    1
    37    15    20    1
    38    15    21    1
@<TRIPOS>MOLECULE
*****
 37 38 0 0 0
SMALL
GASTEIGER

@<TRIPOS>ATOM
      1 P          59.7946   87.7644    8.3103 P.3     1  UNL1        0.3697
      2 O          59.3642   86.8061    7.2397 O.2     1  UNL1       -0.2553
      3 O          59.2243   88.9042    7.5194 O.3     1  UNL1       -0.3218
      4 H          58.8390   88.5656    6.6962 H       1  UNL1        0.2198
      5 C          60.2251   88.7227    9.3810 C.3     1  UNL1        0.2579
      6 O          61.6810   89.0276    9.5736 O.3     1  UNL1       -0.3426
      7 C          62.2292   89.2274   10.9555 C.3     1  UNL1        0.1387
      8 C          62.7764   88.0595   11.7214 C.3     1  UNL1        0.0342
      9 C          62.2301   90.5951   11.5715 C.3     1  UNL1        0.1384
     10 N          63.3845   91.0333   12.4231 N.ar    1  UNL1       -0.2918
     11 C          63.5701   90.7303   13.8804 C.ar    1  UNL1        0.1798
     12 N          64.8564   91.3613   14.3248 N.ar    1  UNL1       -0.2195
     13 C          65.4657   92.0542   13.1422 C.ar    1  UNL1        0.1481
     14 C          66.7313   92.8436   12.9837 C.ar    1  UNL1        0.1480
     15 N          67.6409   93.0462   14.1591 N.pl3   1  UNL1       -0.3413
     16 N          67.0872   93.4303   11.6499 N.ar    1  UNL1       -0.2078
     17 C          66.1775   93.2276   10.4746 C.ar    1  UNL1        0.2015
     18 N          64.9119   92.4383   10.6331 N.ar    1  UNL1       -0.2048
     19 C          64.5560   91.8516   11.9669 C.ar    1  UNL1        0.1674
     20 H          67.4073   92.6612   15.0345 H       1  UNL1        0.1438
     21 H          68.4716   93.5643   14.0551 H       1  UNL1        0.1438
     22 O          60.3650   86.6246    9.1012 O.3     1  UNL1       -0.2926
     23 C          61.3783   85.7115    8.4772 C.3     1  UNL1        0.1514
     24 C          62.7461   85.5854    9.0799 C.3     1  UNL1        0.0326
     25 C          63.0041   84.5635   10.1472 C.3     1  UNL1        0.0026
     26 C          64.0253   83.4877    9.9243 C.3     1  UNL1        0.0001
     27 C          63.9990   82.2436   10.7617 C.3     1  UNL1        0.0000
     28 C          62.7167   81.7937   11.3966 C.3     1  UNL1        0.0000
     29 C          62.7337   80.7143   12.4382 C.3     1  UNL1        0.0000
     30 C          62.5775   81.0680   13.8875 C.3     1  UNL1        0.0000
     31 C          63.2600   82.2839   14.4406 C.3     1  UNL1        0.0000
     32 C          62.5409   83.6000   14.4688 C.3     1  UNL1        0.0000
     33 C          63.1207   84.7868   13.7581 C.3     1  UNL1        0.0010
     34 C          64.3746   85.4299   14.2720 C.3     1  UNL1        0.0140
     35 C          64.2887   86.6090   15.1952 C.3     1  UNL1        0.0770
     36 C          62.6477   86.4363   17.7006 C.1     1  UNL1       -0.0141
     37 C          63.4682   86.5227   16.4479 C.1     1  UNL1       -0.0779
@<TRIPOS>BOND
     1    36    37    3
     2    37    35    1
     3    35    34    1
     4    34    33    1
     5    33    32    1
     6    32    31    1
     7    31    30    1
     8    30    29    1
     9    29    28    1
    10    28    27    1
    11    27    26    1
    12    26    25    1
    13    25    24    1
    14    24    23    1
    15    23    22    1
    16    22     1    1
    17     1     2    2
    18     1     3    1
    19     1     5    1
    20     5     6    1
    21     6     7    1
    22     7     8    1
    23     7     9    1
    24     9    10    1
    25    10    11   ar
    26    11    12   ar
    27    12    13   ar
    28    13    14   ar
    29    14    15    1
    30    14    16   ar
    31    16    17   ar
    32    17    18   ar
    33    18    19   ar
    34    19    10   ar
    35    19    13   ar
    36     3     4    1
    37    15    20    1
    38    15    21    1
@<TRIPOS>MOLECULE
*****
 37 38 0 0 0
SMALL
GASTEIGER

@<TRIPOS>ATOM
      1 P          59.5199   88.1938    8.0295 P.3     1  UNL1        0.3697
      2 O          59.1037   89.0507    6.8708 O.2     1  UNL1       -0.2553
      3 O          58.6391   87.0880    7.5281 O.3     1  UNL1       -0.3218
      4 H          58.1955   87.3721    6.7136 H       1  UNL1        0.2198
      5 C          59.9361   87.3370    9.1882 C.3     1  UNL1        0.2579
      6 O          60.4505   85.9486    8.9477 O.3     1  UNL1       -0.3426
      7 C          61.9201   85.6655    9.0472 C.3     1  UNL1        0.1387
      8 C          62.7135   85.3746    7.8079 C.3     1  UNL1        0.0342
      9 C          62.5965   85.6732   10.3862 C.3     1  UNL1        0.1384
     10 N          62.9860   84.3792   11.0371 N.ar    1  UNL1       -0.2918
     11 C          63.5950   83.1940   10.3483 C.ar    1  UNL1        0.1798
     12 N          63.8203   82.1255   11.3767 N.ar    1  UNL1       -0.2195
     13 C          63.3504   82.6503   12.7011 C.ar    1  UNL1        0.1481
     14 C          63.3255   82.0399   14.0710 C.ar    1  UNL1        0.1480
     15 N          63.8412   80.6470   14.2809 N.pl3   1  UNL1       -0.3413
     16 N          62.7850   82.8223   15.2310 N.ar    1  UNL1       -0.2078
     17 C          62.2694   84.2151   15.0211 C.ar    1  UNL1        0.2015
     18 N          62.2943   84.8256   13.6512 N.ar    1  UNL1       -0.2048
     19 C          62.8348   84.0432   12.4912 C.ar    1  UNL1        0.1674
     20 H          64.1959   80.1335   13.5195 H       1  UNL1        0.1438
     21 H          63.8248   80.2463   15.1800 H       1  UNL1        0.1438
     22 O          60.4008   89.2996    8.5308 O.3     1  UNL1       -0.2926
     23 C          61.0192   89.2063    9.8941 C.3     1  UNL1        0.1514
     24 C          62.4175   89.7006   10.1189 C.3     1  UNL1        0.0326
     25 C          62.6698   90.8271   11.0766 C.3     1  UNL1        0.0026
     26 C          63.6463   90.6506   12.2015 C.3     1  UNL1        0.0001
     27 C          63.7076   89.3488   12.9441 C.3     1  UNL1        0.0000
     28 C          64.2035   89.3153   14.3594 C.3     1  UNL1        0.0000
     29 C          64.0137   90.5080   15.2491 C.3     1  UNL1        0.0000
     30 C          65.1009   91.5343   15.3697 C.3     1  UNL1        0.0000
     31 C          66.4267   91.3039   14.7070 C.3     1  UNL1        0.0000
     32 C          66.9596   92.3067   13.7270 C.3     1  UNL1        0.0000
     33 C          66.0323   93.2984   13.0895 C.3     1  UNL1        0.0010
     34 C          66.2850   93.7678   11.6874 C.3     1  UNL1        0.0140
     35 C          66.2840   92.7837   10.5554 C.3     1  UNL1        0.0770
     36 C          68.7780   92.3455    8.9466 C.1     1  UNL1       -0.0141
     37 C          67.5310   92.5646    9.7510 C.1     1  UNL1       -0.0779
@<TRIPOS>BOND
     1    36    37    3
     2    37    35    1
     3    35    34    1
     4    34    33    1
     5    33    32    1
     6    32    31    1
     7    31    30    1
     8    30    29    1
     9    29    28    1
    10    28    27    1
    11    27    26    1
    12    26    25    1
    13    25    24    1
    14    24    23    1
    15    23    22    1
    16    22     1    1
    17     1     2    2
    18     1     3    1
    19     1     5    1
    20     5     6    1
    21     6     7    1
    22     7     8    1
    23     7     9    1
    24     9    10    1
    25    10    11   ar
    26    11    12   ar
    27    12    13   ar
    28    13    14   ar
    29    14    15    1
    30    14    16   ar
    31    16    17   ar
    32    17    18   ar
    33    18    19   ar
    34    19    10   ar
    35    19    13   ar
    36     3     4    1
    37    15    20    1
    38    15    21    1
@<TRIPOS>MOLECULE
*****
 37 38 0 0 0
SMALL
GASTEIGER

@<TRIPOS>ATOM
      1 P          63.5068   90.1246   15.0879 P.3     1  UNL1        0.3697
      2 O          62.3243   89.3949   15.6529 O.2     1  UNL1       -0.2553
      3 O          63.6277   90.9127   16.3584 O.3     1  UNL1       -0.3218
      4 H          62.9328   90.6377   16.9768 H       1  UNL1        0.2198
      5 C          64.6893   90.8542   14.5228 C.3     1  UNL1        0.2579
      6 O          65.6078   91.6133   15.4340 O.3     1  UNL1       -0.3426
      7 C          66.9686   92.0239   14.9549 C.3     1  UNL1        0.1387
      8 C          67.9396   92.6566   15.9072 C.3     1  UNL1        0.0342
      9 C          67.3585   91.8018   13.5235 C.3     1  UNL1        0.1384
     10 N          66.9631   92.7991   12.4751 N.ar    1  UNL1       -0.2918
     11 C          65.9865   93.9237   12.6518 C.ar    1  UNL1        0.1798
     12 N          65.8948   94.6665   11.3518 N.ar    1  UNL1       -0.2195
     13 C          66.8148   94.0008   10.3717 C.ar    1  UNL1        0.1481
     14 C          67.1365   94.2965    8.9368 C.ar    1  UNL1        0.1480
     15 N          66.4763   95.4507    8.2426 N.pl3   1  UNL1       -0.3413
     16 N          68.1186   93.4381    8.1962 N.ar    1  UNL1       -0.2078
     17 C          68.7789   92.2839    8.8905 C.ar    1  UNL1        0.2015
     18 N          68.4571   91.9882   10.3253 N.ar    1  UNL1       -0.2048
     19 C          67.4751   92.8467   11.0660 C.ar    1  UNL1        0.1674
     20 H          65.8317   96.0141    8.7287 H       1  UNL1        0.1438
     21 H          66.6875   95.6448    7.3008 H       1  UNL1        0.1438
     22 O          63.3860   89.3365   13.8173 O.3     1  UNL1       -0.2926
     23 C          62.8059   89.9756   12.5906 C.3     1  UNL1        0.1514
     24 C          62.7247   89.2013   11.3085 C.3     1  UNL1        0.0326
     25 C          62.3523   87.7484   11.3321 C.3     1  UNL1        0.0026
     26 C          61.7219   87.1161   10.1268 C.3     1  UNL1        0.0001
     27 C          62.5830   86.6186    9.0039 C.3     1  UNL1        0.0000
     28 C          62.9698   85.1708    8.9400 C.3     1  UNL1        0.0000
     29 C          63.1547   84.3872   10.2057 C.3     1  UNL1        0.0000
     30 C          64.2372   83.3528   10.2961 C.3     1  UNL1        0.0000
     31 C          64.2370   82.3633   11.4234 C.3     1  UNL1        0.0000
     32 C          63.6870   82.7531   12.7634 C.3     1  UNL1        0.0000
     33 C          64.3076   83.8840   13.5287 C.3     1  UNL1        0.0010
     34 C          63.7538   84.2777   14.8660 C.3     1  UNL1        0.0140
     35 C          64.0896   85.6169   15.4521 C.3     1  UNL1        0.0770
     36 C          62.6731   86.5732   17.9176 C.1     1  UNL1       -0.0141
     37 C          63.3814   86.0951   16.6849 C.1     1  UNL1       -0.0779
@<TRIPOS>BOND
     1    36    37    3
     2    37    35    1
     3    35    34    1
     4    34    33    1
     5    33    32    1
     6    32    31    1
     7    31    30    1
     8    30    29    1
     9    29    28    1
    10    28    27    1
    11    27    26    1
    12    26    25    1
    13    25    24    1
    14    24    23    1
    15    23    22    1
    16    22     1    1
    17     1     2    2
    18     1     3    1
    19     1     5    1
    20     5     6    1
    21     6     7    1
    22     7     8    1
    23     7     9    1
    24     9    10    1
    25    10    11   ar
    26    11    12   ar
    27    12    13   ar
    28    13    14   ar
    29    14    15    1
    30    14    16   ar
    31    16    17   ar
    32    17    18   ar
    33    18    19   ar
    34    19    10   ar
    35    19    13   ar
    36     3     4    1
    37    15    20    1
    38    15    21    1
@<TRIPOS>MOLECULE
*****
 37 38 0 0 0
SMALL
GASTEIGER

@<TRIPOS>ATOM
      1 P          63.5411   89.9909   14.7897 P.3     1  UNL1        0.3697
      2 O          62.6346   89.4322   15.8461 O.2     1  UNL1       -0.2553
      3 O          63.4911   91.3334   15.4568 O.3     1  UNL1       -0.3218
      4 H          62.9276   91.2822   16.2447 H       1  UNL1        0.2198
      5 C          64.4476   90.5496   13.7332 C.3     1  UNL1        0.2579
      6 O          64.7539   92.0177   13.7075 O.3     1  UNL1       -0.3426
      7 C          66.1330   92.5022   14.0442 C.3     1  UNL1        0.1387
      8 C          67.1396   91.5545   14.6260 C.3     1  UNL1        0.0342
      9 C          66.5054   93.9345   13.7991 C.3     1  UNL1        0.1384
     10 N          66.5295   94.4742   12.3997 N.ar    1  UNL1       -0.2918
     11 C          65.9528   95.7839   11.9498 C.ar    1  UNL1        0.1798
     12 N          66.2014   95.9181   10.4767 N.ar    1  UNL1       -0.2195
     13 C          66.9316   94.6914   10.0161 C.ar    1  UNL1        0.1481
     14 C          67.4381   94.2717    8.6681 C.ar    1  UNL1        0.1480
     15 N          67.2354   95.1641    7.4795 N.pl3   1  UNL1       -0.3413
     16 N          68.1474   92.9597    8.5085 N.ar    1  UNL1       -0.2078
     17 C          68.3501   92.0674    9.6971 C.ar    1  UNL1        0.2015
     18 N          67.8436   92.4870   11.0451 N.ar    1  UNL1       -0.2048
     19 C          67.1344   93.7991   11.2046 C.ar    1  UNL1        0.1674
     20 H          66.7699   96.0252    7.5842 H       1  UNL1        0.1438
     21 H          67.5678   94.8886    6.5947 H       1  UNL1        0.1438
     22 O          63.5911   88.6483   14.1225 O.3     1  UNL1       -0.2926
     23 C          64.4324   87.5519   14.7056 C.3     1  UNL1        0.1514
     24 C          63.8670   86.1704   14.8530 C.3     1  UNL1        0.0326
     25 C          64.7494   84.9738   14.6540 C.3     1  UNL1        0.0026
     26 C          64.2323   83.6006   14.9654 C.3     1  UNL1        0.0001
     27 C          62.7544   83.3503   15.0205 C.3     1  UNL1        0.0000
     28 C          62.1691   82.1579   14.3237 C.3     1  UNL1        0.0000
     29 C          62.9877   81.3976   13.3226 C.3     1  UNL1        0.0000
     30 C          62.6559   81.4832   11.8623 C.3     1  UNL1        0.0000
     31 C          63.6219   82.1234   10.9100 C.3     1  UNL1        0.0000
     32 C          64.0823   83.5319   11.1424 C.3     1  UNL1        0.0000
     33 C          63.0764   84.6333   11.3005 C.3     1  UNL1        0.0010
     34 C          62.5185   85.3191   10.0887 C.3     1  UNL1        0.0140
     35 C          61.2246   86.0720   10.1820 C.3     1  UNL1        0.0770
     36 C          59.6095   86.5917    7.7079 C.1     1  UNL1       -0.0141
     37 C          60.4171   86.3319    8.9450 C.1     1  UNL1       -0.0779
@<TRIPOS>BOND
     1    36    37    3
     2    37    35    1
     3    35    34    1
     4    34    33    1
     5    33    32    1
     6    32    31    1
     7    31    30    1
     8    30    29    1
     9    29    28    1
    10    28    27    1
    11    27    26    1
    12    26    25    1
    13    25    24    1
    14    24    23    1
    15    23    22    1
    16    22     1    1
    17     1     2    2
    18     1     3    1
    19     1     5    1
    20     5     6    1
    21     6     7    1
    22     7     8    1
    23     7     9    1
    24     9    10    1
    25    10    11   ar
    26    11    12   ar
    27    12    13   ar
    28    13    14   ar
    29    14    15    1
    30    14    16   ar
    31    16    17   ar
    32    17    18   ar
    33    18    19   ar
    34    19    10   ar
    35    19    13   ar
    36     3     4    1
    37    15    20    1
    38    15    21    1
@<TRIPOS>MOLECULE
*****
 37 38 0 0 0
SMALL
GASTEIGER

@<TRIPOS>ATOM
      1 P          60.8646   87.8624   10.8011 P.3     1  UNL1        0.3697
      2 O          60.0140   88.5544   11.8246 O.2     1  UNL1       -0.2553
      3 O          60.8765   86.6244   11.6480 O.3     1  UNL1       -0.3218
      4 H          60.3605   86.7795   12.4546 H       1  UNL1        0.2198
      5 C          61.7153   87.1704    9.7776 C.3     1  UNL1        0.2579
      6 O          61.6964   85.6741    9.6744 O.3     1  UNL1       -0.3426
      7 C          62.7392   84.9651    8.8621 C.3     1  UNL1        0.1387
      8 C          62.6974   85.0329    7.3642 C.3     1  UNL1        0.0342
      9 C          63.8239   84.1882    9.5477 C.3     1  UNL1        0.1384
     10 N          63.4725   83.1750   10.5965 N.ar    1  UNL1       -0.2918
     11 C          63.4045   81.6895   10.3996 C.ar    1  UNL1        0.1798
     12 N          63.0174   81.0659   11.7077 N.ar    1  UNL1       -0.2195
     13 C          62.8462   82.1659   12.7130 C.ar    1  UNL1        0.1481
     14 C          62.4705   82.1490   14.1651 C.ar    1  UNL1        0.1480
     15 N          62.1892   80.8454   14.8519 N.pl3   1  UNL1       -0.3413
     16 N          62.3761   83.4356   14.9303 N.ar    1  UNL1       -0.2078
     17 C          62.6574   84.7391   14.2435 C.ar    1  UNL1        0.2015
     18 N          63.0331   84.7560   12.7915 N.ar    1  UNL1       -0.2048
     19 C          63.1275   83.4694   12.0262 C.ar    1  UNL1        0.1674
     20 H          62.2512   80.0010   14.3496 H       1  UNL1        0.1438
     21 H          61.9426   80.8344   15.8050 H       1  UNL1        0.1438
     22 O          60.8527   89.1003    9.9542 O.3     1  UNL1       -0.2926
     23 C          61.4986   90.3581   10.4551 C.3     1  UNL1        0.1514
     24 C          62.9709   90.3827   10.7410 C.3     1  UNL1        0.0326
     25 C          63.4617   90.7125   12.1195 C.3     1  UNL1        0.0026
     26 C          63.7503   89.6113   13.0963 C.3     1  UNL1        0.0001
     27 C          64.1503   89.9427   14.5034 C.3     1  UNL1        0.0000
     28 C          64.9133   91.2021   14.7895 C.3     1  UNL1        0.0000
     29 C          66.4103   91.2101   14.6945 C.3     1  UNL1        0.0000
     30 C          67.0852   91.8982   13.5452 C.3     1  UNL1        0.0000
     31 C          66.5988   93.2401   13.0841 C.3     1  UNL1        0.0000
     32 C          65.7557   93.3483   11.8482 C.3     1  UNL1        0.0000
     33 C          66.1557   92.6171   10.6011 C.3     1  UNL1        0.0010
     34 C          67.6066   92.4747   10.2480 C.3     1  UNL1        0.0140
     35 C          68.2060   93.3368    9.1768 C.3     1  UNL1        0.0770
     36 C          67.3497   96.1987    8.9006 C.1     1  UNL1       -0.0141
     37 C          67.7779   94.7678    9.0387 C.1     1  UNL1       -0.0779
@<TRIPOS>BOND
     1    36    37    3
     2    37    35    1
     3    35    34    1
     4    34    33    1
     5    33    32    1
     6    32    31    1
     7    31    30    1
     8    30    29    1
     9    29    28    1
    10    28    27    1
    11    27    26    1
    12    26    25    1
    13    25    24    1
    14    24    23    1
    15    23    22    1
    16    22     1    1
    17     1     2    2
    18     1     3    1
    19     1     5    1
    20     5     6    1
    21     6     7    1
    22     7     8    1
    23     7     9    1
    24     9    10    1
    25    10    11   ar
    26    11    12   ar
    27    12    13   ar
    28    13    14   ar
    29    14    15    1
    30    14    16   ar
    31    16    17   ar
    32    17    18   ar
    33    18    19   ar
    34    19    10   ar
    35    19    13   ar
    36     3     4    1
    37    15    20    1
    38    15    21    1
@<TRIPOS>MOLECULE
*****
 37 38 0 0 0
SMALL
GASTEIGER

@<TRIPOS>ATOM
      1 P          60.5814   88.9664   10.9996 P.3     1  UNL1        0.3697
      2 O          60.2205   89.5575   12.3301 O.2     1  UNL1       -0.2553
      3 O          60.0187   87.6455   11.4338 O.3     1  UNL1       -0.3218
      4 H          59.6773   87.7212   12.3385 H       1  UNL1        0.2198
      5 C          60.9424   88.3753    9.6691 C.3     1  UNL1        0.2579
      6 O          62.1545   87.5011    9.5407 O.3     1  UNL1       -0.3426
      7 C          62.0207   86.1076    9.0021 C.3     1  UNL1        0.1387
      8 C          61.0692   85.8265    7.8770 C.3     1  UNL1        0.0342
      9 C          62.8382   84.9950    9.5886 C.3     1  UNL1        0.1384
     10 N          62.8064   84.7394   11.0663 N.ar    1  UNL1       -0.2918
     11 C          62.7112   85.7829   12.1397 C.ar    1  UNL1        0.1798
     12 N          62.7102   85.0838   13.4668 N.ar    1  UNL1       -0.2195
     13 C          62.8048   83.6083   13.2137 C.ar    1  UNL1        0.1481
     14 C          62.8444   82.4311   14.1424 C.ar    1  UNL1        0.1480
     15 N          62.7849   82.6440   15.6260 N.pl3   1  UNL1       -0.3413
     16 N          62.9435   81.0411   13.5875 N.ar    1  UNL1       -0.2078
     17 C          63.0029   80.8283   12.1039 C.ar    1  UNL1        0.2015
     18 N          62.9633   82.0055   11.1751 N.ar    1  UNL1       -0.2048
     19 C          62.8642   83.3955   11.7300 C.ar    1  UNL1        0.1674
     20 H          62.7199   83.5563   15.9902 H       1  UNL1        0.1438
     21 H          62.8109   81.8713   16.2356 H       1  UNL1        0.1438
     22 O          61.1442   90.2873   10.5654 O.3     1  UNL1       -0.2926
     23 C          62.5693   90.3812   10.1070 C.3     1  UNL1        0.1514
     24 C          63.5576   91.1922   10.8915 C.3     1  UNL1        0.0326
     25 C          63.5270   91.1661   12.3910 C.3     1  UNL1        0.0026
     26 C          63.7477   89.8757   13.1233 C.3     1  UNL1        0.0001
     27 C          64.6736   89.8314   14.3025 C.3     1  UNL1        0.0000
     28 C          65.2946   91.0964   14.8165 C.3     1  UNL1        0.0000
     29 C          66.7633   91.3396   14.6322 C.3     1  UNL1        0.0000
     30 C          67.2350   92.3804   13.6604 C.3     1  UNL1        0.0000
     31 C          66.2788   93.4161   13.1478 C.3     1  UNL1        0.0000
     32 C          66.3133   93.8192   11.7034 C.3     1  UNL1        0.0000
     33 C          66.8889   92.8876   10.6783 C.3     1  UNL1        0.0010
     34 C          67.3994   93.4288    9.3758 C.3     1  UNL1        0.0140
     35 C          67.7857   94.8738    9.2637 C.3     1  UNL1        0.0770
     36 C          66.2140   96.7136    7.4903 C.1     1  UNL1       -0.0141
     37 C          66.9998   95.7937    8.3770 C.1     1  UNL1       -0.0779
@<TRIPOS>BOND
     1    36    37    3
     2    37    35    1
     3    35    34    1
     4    34    33    1
     5    33    32    1
     6    32    31    1
     7    31    30    1
     8    30    29    1
     9    29    28    1
    10    28    27    1
    11    27    26    1
    12    26    25    1
    13    25    24    1
    14    24    23    1
    15    23    22    1
    16    22     1    1
    17     1     2    2
    18     1     3    1
    19     1     5    1
    20     5     6    1
    21     6     7    1
    22     7     8    1
    23     7     9    1
    24     9    10    1
    25    10    11   ar
    26    11    12   ar
    27    12    13   ar
    28    13    14   ar
    29    14    15    1
    30    14    16   ar
    31    16    17   ar
    32    17    18   ar
    33    18    19   ar
    34    19    10   ar
    35    19    13   ar
    36     3     4    1
    37    15    20    1
    38    15    21    1
