@<TRIPOS>MOLECULE
*****
 62 69 0 0 0
SMALL
GASTEIGER

@<TRIPOS>ATOM
      1 C          62.3726   89.9221   10.9619 C.ar    1  UNL1        0.2284
      2 N          61.7810   90.3549    9.6532 N.ar    1  UNL1       -0.1893
      3 C          62.3388   91.5486    8.9363 C.ar    1  UNL1        0.2020
      4 N          63.4880   92.3095    9.5281 N.ar    1  UNL1       -0.2171
      5 C          64.0796   91.8767   10.8368 C.ar    1  UNL1        0.1169
      6 S          65.2078   92.4256   11.6588 S.2     1  UNL1       -0.0678
      7 C          65.3474   91.5712   12.8838 C.ar    1  UNL1        0.0310
      8 C          64.3054   90.4942   12.8188 C.ar    1  UNL1        0.0122
      9 C          63.5219   90.6830   11.5537 C.ar    1  UNL1        0.0775
     10 C          64.0855   89.4174   13.8397 C.ar    1  UNL1       -0.0023
     11 C          64.3190   87.9809   13.4767 C.ar    1  UNL1        0.0029
     12 C          64.0992   86.9040   14.4975 C.ar    1  UNL1        0.0378
     13 C          63.6458   87.2638   15.8814 C.ar    1  UNL1        0.1487
     14 C          63.4123   88.7004   16.2444 C.ar    1  UNL1        0.0876
     15 CL         62.9590   89.0602   17.6282 Cl      1  UNL1       -0.0794
     16 C          63.6322   89.7772   15.2236 C.ar    1  UNL1       -0.0083
     17 C          63.3987   91.2138   15.5865 C.3     1  UNL1        0.0320
     18 O          63.4259   86.1871   16.9023 O.3     1  UNL1       -0.4731
     19 C          62.7395   84.9119   16.5114 C.3     1  UNL1        0.2227
     20 C          63.5512   83.7100   16.1288 C.3     1  UNL1        0.1201
     21 N          63.4533   83.1496   14.7409 N.3     1  UNL1       -0.2672
     22 C          62.3407   82.2071   14.3893 C.3     1  UNL1        0.0898
     23 C          62.2427   81.6468   13.0013 C.3     1  UNL1        0.0897
     24 N          63.2574   82.0290   11.9649 N.3     1  UNL1       -0.2691
     25 C          63.1595   81.4687   10.5769 C.3     1  UNL1        0.0897
     26 C          64.3700   82.9716   12.3164 C.3     1  UNL1        0.0897
     27 C          64.4680   83.5319   13.7044 C.3     1  UNL1        0.0898
     28 C          66.3525   91.7607   13.9811 C.ar    1  UNL1        0.0062
     29 C          67.8067   91.5031   13.7187 C.ar    1  UNL1        0.0028
     30 C          68.8117   91.6925   14.8160 C.ar    1  UNL1        0.0297
     31 C          68.3625   92.1395   16.1756 C.ar    1  UNL1        0.1401
     32 F          69.3676   92.3290   17.2728 F       1  UNL1       -0.2042
     33 C          66.9083   92.3971   16.4379 C.ar    1  UNL1        0.0297
     34 C          65.9033   92.2077   15.3406 C.ar    1  UNL1        0.0028
     35 O          61.8149   88.7283   11.6789 O.3     1  UNL1       -0.4578
     36 C          60.3542   88.4043   11.5722 C.3     1  UNL1        0.2079
     37 C          59.3526   89.1842   12.3716 C.2     1  UNL1        0.0904
     38 O          58.7281   88.5744   13.5914 O.co2   1  UNL1       -0.5455
     39 O          58.9757   90.5738   11.9510 O.co2   1  UNL1       -0.5455
     40 C          59.8949   87.3005   10.6663 C.3     1  UNL1        0.0789
     41 C          60.8130   86.6586    8.3221 C.ar    1  UNL1        0.1352
     42 C          61.8068   85.9227    7.4731 C.ar    1  UNL1        0.0366
     43 C          62.8764   85.0929    8.1193 C.ar    1  UNL1        0.0031
     44 C          62.9521   84.9990    9.6144 C.ar    1  UNL1       -0.0001
     45 C          61.9583   85.7349   10.4634 C.ar    1  UNL1       -0.0011
     46 C          60.8888   86.5647    9.8173 C.ar    1  UNL1        0.0158
     47 O          59.7435   87.4884    7.6760 O.3     1  UNL1       -0.4693
     48 C          59.7692   88.9821    7.8107 C.3     1  UNL1        0.2509
     49 C          60.2217   91.1849    4.5408 C.ar    1  UNL1        0.1649
     50 N          58.8007   91.5780    4.2648 N.ar    1  UNL1       -0.2249
     51 C          57.7025   91.1057    5.1709 C.ar    1  UNL1        0.1019
     52 C          58.0253   90.2404    6.3528 C.ar    1  UNL1        0.0391
     53 C          59.4463   89.8474    6.6287 C.ar    1  UNL1        0.1058
     54 N          60.5445   90.3196    5.7227 N.ar    1  UNL1       -0.2271
     55 C          61.0412   92.7113    2.6046 C.ar    1  UNL1        0.1416
     56 C          62.1395   93.1835    1.6986 C.ar    1  UNL1        0.0370
     57 C          63.5164   92.6017    1.8227 C.ar    1  UNL1        0.0031
     58 C          63.7951   91.5476    2.8528 C.ar    1  UNL1        0.0003
     59 C          62.6969   91.0754    3.7588 C.ar    1  UNL1        0.0061
     60 C          61.3200   91.6572    3.6347 C.ar    1  UNL1        0.0697
     61 C          59.0533   93.4917    1.1251 C.3     1  UNL1        0.2525
     62 O          59.6642   93.2932    2.4805 O.3     1  UNL1       -0.4713
@<TRIPOS>UNITY_ATOM_ATTR
38 1
charge -1
@<TRIPOS>BOND
     1    61    62    1
     2    62    55    1
     3    55    56   ar
     4    56    57   ar
     5    57    58   ar
     6    58    59   ar
     7    59    60   ar
     8    60    49    1
     9    49    50   ar
    10    50    51   ar
    11    51    52   ar
    12    52    53   ar
    13    53    48    1
    14    48    47    1
    15    47    41    1
    16    41    42   ar
    17    42    43   ar
    18    43    44   ar
    19    44    45   ar
    20    45    46   ar
    21    46    40    1
    22    36    40    1
    23    36    35    1
    24    35     1    1
    25     1     2   ar
    26     2     3   ar
    27     3     4   ar
    28     4     5   ar
    29     5     6   ar
    30     6     7   ar
    31     7    28    1
    32    28    29   ar
    33    29    30   ar
    34    30    31   ar
    35    31    32    1
    36    31    33   ar
    37    33    34   ar
    38     7     8   ar
    39     8    10    1
    40    10    11   ar
    41    11    12   ar
    42    12    13   ar
    43    13    18    1
    44    18    19    1
    45    19    20    1
    46    20    21    1
    47    21    22    1
    48    22    23    1
    49    23    24    1
    50    24    25    1
    51    24    26    1
    52    26    27    1
    53    13    14   ar
    54    14    15    1
    55    14    16   ar
    56    16    17    1
    57     8     9   ar
    58    36    37    1
    59    37    38   ar
    60    37    39   ar
    61    53    54   ar
    62    60    55   ar
    63    54    49   ar
    64    46    41   ar
    65     9     1   ar
    66     9     5   ar
    67    34    28   ar
    68    16    10   ar
    69    27    21    1
