@<TRIPOS>MOLECULE
*****
 33 36 0 0 0
SMALL
GASTEIGER

@<TRIPOS>ATOM
      1 C          61.5114   89.9739   12.5355 C.2     1  UNL1        0.2459
      2 O          61.2787   89.5439   13.9535 O.2     1  UNL1       -0.2730
      3 N          62.7741   90.6955   12.1681 N.am    1  UNL1       -0.2781
      4 C          63.0068   91.1255   10.7501 C.3     1  UNL1        0.0935
      5 C          64.2695   91.8470   10.3828 C.3     1  UNL1        0.0219
      6 C          65.2995   92.1385   11.4335 C.3     1  UNL1        0.0078
      7 C          65.0668   91.7085   12.8516 C.3     1  UNL1        0.0419
      8 C          63.8041   90.9870   13.2189 C.3     1  UNL1        0.0953
      9 C          66.0968   92.0001   13.9023 C.ar    1  UNL1       -0.0209
     10 C          67.5561   91.8899   13.5731 C.ar    1  UNL1       -0.0042
     11 C          68.5861   92.1814   14.6239 C.ar    1  UNL1       -0.0003
     12 C          68.1569   92.5831   16.0038 C.ar    1  UNL1       -0.0000
     13 C          66.6976   92.6933   16.3331 C.ar    1  UNL1       -0.0003
     14 C          65.6676   92.4018   15.2823 C.ar    1  UNL1       -0.0042
     15 C          60.4814   89.6824   11.4847 C.3     1  UNL1        0.1780
     16 N          60.8651   88.9256   10.2479 N.pl3   1  UNL1       -0.2868
     17 C          61.5062   87.5744   10.3639 C.ar    1  UNL1        0.0498
     18 C          61.6279   86.9148   11.7056 C.ar    1  UNL1        0.0155
     19 C          62.2689   85.5637   11.8217 C.ar    1  UNL1        0.0135
     20 C          62.7882   84.8721   10.5961 C.ar    1  UNL1        0.0683
     21 CL         63.4293   83.5209   10.7122 Cl      1  UNL1       -0.0814
     22 C          62.6665   85.5317    9.2544 C.ar    1  UNL1        0.0694
     23 CL         63.1858   84.8402    8.0288 Cl      1  UNL1       -0.0813
     24 C          62.0255   86.8829    9.1383 C.ar    1  UNL1        0.0268
     25 C          60.6079   89.5199    8.8949 C.3     1  UNL1        0.1986
     26 N          58.5918   88.2629    7.0631 N.1     1  UNL1       -0.1941
     27 C          59.5998   88.8914    7.9789 C.1     1  UNL1        0.0954
     28 C          63.5714   90.5570   14.6370 C.3     1  UNL1        0.0924
     29 N          63.7410   89.1170   15.0215 N.3     1  UNL1       -0.2713
     30 C          63.3207   88.4959   16.3205 C.3     1  UNL1        0.0722
     31 C          63.6807   87.0404   16.2763 C.3     1  UNL1        0.0188
     32 C          64.3235   86.7620   14.9500 C.3     1  UNL1        0.0188
     33 C          64.3608   88.0454   14.1744 C.3     1  UNL1        0.0722
@<TRIPOS>BOND
     1    26    27    3
     2    27    25    1
     3    25    16    1
     4    16    15    1
     5    15     1    1
     6     1     2    2
     7     1     3   am
     8     3     4    1
     9     4     5    1
    10     5     6    1
    11     6     7    1
    12     7     9    1
    13     9    10   ar
    14    10    11   ar
    15    11    12   ar
    16    12    13   ar
    17    13    14   ar
    18     7     8    1
    19     8    28    1
    20    28    29    1
    21    29    30    1
    22    30    31    1
    23    31    32    1
    24    32    33    1
    25    16    17    1
    26    17    18   ar
    27    18    19   ar
    28    19    20   ar
    29    20    21    1
    30    20    22   ar
    31    22    23    1
    32    22    24   ar
    33     8     3    1
    34    33    29    1
    35    24    17   ar
    36    14     9   ar
@<TRIPOS>MOLECULE
*****
 33 36 0 0 0
SMALL
GASTEIGER

@<TRIPOS>ATOM
      1 C          61.7471   87.3416   10.9604 C.2     1  UNL1        0.2459
      2 O          61.2330   87.4473   12.3655 O.2     1  UNL1       -0.2730
      3 N          62.3805   86.0668   10.4873 N.am    1  UNL1       -0.2781
      4 C          62.8947   85.9611    9.0822 C.3     1  UNL1        0.0935
      5 C          63.5280   84.6864    8.6092 C.3     1  UNL1        0.0219
      6 C          63.6473   83.5172    9.5414 C.3     1  UNL1        0.0078
      7 C          63.1331   83.6229   10.9465 C.3     1  UNL1        0.0419
      8 C          62.4997   84.8977   11.4195 C.3     1  UNL1        0.0953
      9 C          63.2523   82.4538   11.8787 C.ar    1  UNL1       -0.0209
     10 C          64.3671   82.4044   12.8810 C.ar    1  UNL1       -0.0042
     11 C          64.4863   81.2352   13.8132 C.ar    1  UNL1       -0.0003
     12 C          63.4907   80.1155   13.7430 C.ar    1  UNL1       -0.0000
     13 C          62.3759   80.1649   12.7407 C.ar    1  UNL1       -0.0003
     14 C          62.2567   81.3340   11.8085 C.ar    1  UNL1       -0.0042
     15 C          61.6279   88.5108   10.0282 C.3     1  UNL1        0.1780
     16 N          61.4829   89.8981   10.5798 N.pl3   1  UNL1       -0.2868
     17 C          62.6970   90.6604   11.0212 C.ar    1  UNL1        0.0498
     18 C          63.4091   91.5610   10.0558 C.ar    1  UNL1        0.0155
     19 C          64.6231   92.3234   10.4972 C.ar    1  UNL1        0.0135
     20 C          65.1252   92.1851   11.9038 C.ar    1  UNL1        0.0683
     21 CL         66.3393   92.9475   12.3452 Cl      1  UNL1       -0.0814
     22 C          64.4132   91.2845   12.8692 C.ar    1  UNL1        0.0694
     23 CL         64.9153   91.1463   14.2759 Cl      1  UNL1       -0.0813
     24 C          63.1991   90.5222   12.4279 C.ar    1  UNL1        0.0268
     25 C          60.1238   90.5231   10.6901 C.3     1  UNL1        0.1986
     26 N          58.1674   89.5093   12.7260 N.1     1  UNL1       -0.1941
     27 C          59.1456   90.0162   11.7081 C.1     1  UNL1        0.0954
     28 C          61.9855   85.0034   12.8247 C.3     1  UNL1        0.0924
     29 N          62.9334   85.2945   13.9502 N.3     1  UNL1       -0.2713
     30 C          62.8415   84.7479   15.3440 C.3     1  UNL1        0.0722
     31 C          63.9909   85.2989   16.1348 C.3     1  UNL1        0.0188
     32 C          64.7931   86.1862   15.2297 C.3     1  UNL1        0.0188
     33 C          64.1395   86.1834   13.8796 C.3     1  UNL1        0.0722
@<TRIPOS>BOND
     1    26    27    3
     2    27    25    1
     3    25    16    1
     4    16    15    1
     5    15     1    1
     6     1     2    2
     7     1     3   am
     8     3     4    1
     9     4     5    1
    10     5     6    1
    11     6     7    1
    12     7     9    1
    13     9    10   ar
    14    10    11   ar
    15    11    12   ar
    16    12    13   ar
    17    13    14   ar
    18     7     8    1
    19     8    28    1
    20    28    29    1
    21    29    30    1
    22    30    31    1
    23    31    32    1
    24    32    33    1
    25    16    17    1
    26    17    18   ar
    27    18    19   ar
    28    19    20   ar
    29    20    21    1
    30    20    22   ar
    31    22    23    1
    32    22    24   ar
    33     8     3    1
    34    33    29    1
    35    24    17   ar
    36    14     9   ar
@<TRIPOS>MOLECULE
*****
 33 36 0 0 0
SMALL
GASTEIGER

@<TRIPOS>ATOM
      1 C          62.1014   90.3213   12.2026 C.2     1  UNL1        0.2459
      2 O          61.7144   89.8928   13.5870 O.2     1  UNL1       -0.2730
      3 N          63.4159   91.0052   11.9691 N.am    1  UNL1       -0.2781
      4 C          63.8030   91.4337   10.5847 C.3     1  UNL1        0.0935
      5 C          65.1174   92.1176   10.3513 C.3     1  UNL1        0.0219
      6 C          66.0448   92.3730   11.5023 C.3     1  UNL1        0.0078
      7 C          65.6577   91.9445   12.8867 C.3     1  UNL1        0.0419
      8 C          64.3433   91.2606   13.1201 C.3     1  UNL1        0.0953
      9 C          66.5851   92.1999   14.0376 C.ar    1  UNL1       -0.0209
     10 C          66.0341   92.6404   15.3613 C.ar    1  UNL1       -0.0042
     11 C          66.9615   92.8958   16.5123 C.ar    1  UNL1       -0.0003
     12 C          68.4399   92.7107   16.3395 C.ar    1  UNL1       -0.0000
     13 C          68.9910   92.2702   15.0158 C.ar    1  UNL1       -0.0003
     14 C          68.0636   92.0148   13.8649 C.ar    1  UNL1       -0.0042
     15 C          61.1740   90.0659   11.0516 C.3     1  UNL1        0.1780
     16 N          60.4812   88.7414   10.9263 N.pl3   1  UNL1       -0.2868
     17 C          61.2608   87.5212   10.5345 C.ar    1  UNL1        0.0498
     18 C          61.6147   87.2873    9.0958 C.ar    1  UNL1        0.0155
     19 C          62.3943   86.0672    8.7039 C.ar    1  UNL1        0.0135
     20 C          62.8200   85.0811    9.7509 C.ar    1  UNL1        0.0683
     21 CL         63.5996   83.8609    9.3591 Cl      1  UNL1       -0.0814
     22 C          62.4661   85.3150   11.1897 C.ar    1  UNL1        0.0694
     23 CL         62.8919   84.3287   12.2366 Cl      1  UNL1       -0.0813
     24 C          61.6866   86.5351   11.5815 C.ar    1  UNL1        0.0268
     25 C          59.0088   88.6370   11.1928 C.3     1  UNL1        0.1986
     26 N          57.9939   88.6045   14.0158 N.1     1  UNL1       -0.1941
     27 C          58.5013   88.6208   12.6043 C.1     1  UNL1        0.0954
     28 C          63.9562   90.8321   14.5045 C.3     1  UNL1        0.0924
     29 N          63.9758   89.3781   14.8725 N.3     1  UNL1       -0.2713
     30 C          63.4829   88.7878   16.1604 C.3     1  UNL1        0.0722
     31 C          63.6942   87.3039   16.1011 C.3     1  UNL1        0.0188
     32 C          64.3176   86.9771   14.7766 C.3     1  UNL1        0.0188
     33 C          64.4916   88.2590   14.0173 C.3     1  UNL1        0.0722
@<TRIPOS>BOND
     1    26    27    3
     2    27    25    1
     3    25    16    1
     4    16    15    1
     5    15     1    1
     6     1     2    2
     7     1     3   am
     8     3     4    1
     9     4     5    1
    10     5     6    1
    11     6     7    1
    12     7     9    1
    13     9    10   ar
    14    10    11   ar
    15    11    12   ar
    16    12    13   ar
    17    13    14   ar
    18     7     8    1
    19     8    28    1
    20    28    29    1
    21    29    30    1
    22    30    31    1
    23    31    32    1
    24    32    33    1
    25    16    17    1
    26    17    18   ar
    27    18    19   ar
    28    19    20   ar
    29    20    21    1
    30    20    22   ar
    31    22    23    1
    32    22    24   ar
    33     8     3    1
    34    33    29    1
    35    24    17   ar
    36    14     9   ar
@<TRIPOS>MOLECULE
*****
 33 36 0 0 0
SMALL
GASTEIGER

@<TRIPOS>ATOM
      1 C          63.1181   88.1835   12.6661 C.2     1  UNL1        0.2459
      2 O          61.9847   88.0080   11.6994 O.2     1  UNL1       -0.2730
      3 N          63.6946   86.9912   13.3705 N.am    1  UNL1       -0.2781
      4 C          64.8279   87.1667   14.3372 C.3     1  UNL1        0.0935
      5 C          65.4043   85.9744   15.0416 C.3     1  UNL1        0.0219
      6 C          64.8474   84.6066   14.7792 C.3     1  UNL1        0.0078
      7 C          63.7140   84.4311   13.8125 C.3     1  UNL1        0.0419
      8 C          63.1376   85.6234   13.1081 C.3     1  UNL1        0.0953
      9 C          63.1570   83.0632   13.5501 C.ar    1  UNL1       -0.0209
     10 C          62.0609   82.5206   14.4184 C.ar    1  UNL1       -0.0042
     11 C          61.5039   81.1527   14.1560 C.ar    1  UNL1       -0.0003
     12 C          62.0430   80.3276   13.0254 C.ar    1  UNL1       -0.0000
     13 C          63.1392   80.8703   12.1571 C.ar    1  UNL1       -0.0003
     14 C          63.6961   82.2381   12.4194 C.ar    1  UNL1       -0.0042
     15 C          63.6751   89.5513   12.9284 C.3     1  UNL1        0.1780
     16 N          63.6964   90.0972   14.3254 N.pl3   1  UNL1       -0.2868
     17 C          64.8315   90.9701   14.7723 C.ar    1  UNL1        0.0498
     18 C          64.6985   91.7936   16.0190 C.ar    1  UNL1        0.0155
     19 C          65.8334   92.6666   16.4659 C.ar    1  UNL1        0.0135
     20 C          67.1015   92.7159   15.6662 C.ar    1  UNL1        0.0683
     21 CL         68.2366   93.5889   16.1131 Cl      1  UNL1       -0.0814
     22 C          67.2345   91.8924   14.4195 C.ar    1  UNL1        0.0694
     23 CL         68.5027   91.9418   13.6198 Cl      1  UNL1       -0.0813
     24 C          66.0996   91.0195   13.9726 C.ar    1  UNL1        0.0268
     25 C          62.5828   89.7701   15.2755 C.3     1  UNL1        0.1986
     26 N          63.0622   87.8791   17.5547 N.1     1  UNL1       -0.1941
     27 C          62.8225   88.8245   16.4151 C.1     1  UNL1        0.0954
     28 C          62.0041   85.4479   12.1413 C.3     1  UNL1        0.0924
     29 N          62.2825   85.3363   10.6716 N.3     1  UNL1       -0.2713
     30 C          61.5116   86.0089    9.5747 C.3     1  UNL1        0.0722
     31 C          62.1332   85.6208    8.2659 C.3     1  UNL1        0.0188
     32 C          63.2884   84.7083    8.5539 C.3     1  UNL1        0.0188
     33 C          63.3806   84.5325   10.0407 C.3     1  UNL1        0.0722
@<TRIPOS>BOND
     1    26    27    3
     2    27    25    1
     3    25    16    1
     4    16    15    1
     5    15     1    1
     6     1     2    2
     7     1     3   am
     8     3     4    1
     9     4     5    1
    10     5     6    1
    11     6     7    1
    12     7     9    1
    13     9    10   ar
    14    10    11   ar
    15    11    12   ar
    16    12    13   ar
    17    13    14   ar
    18     7     8    1
    19     8    28    1
    20    28    29    1
    21    29    30    1
    22    30    31    1
    23    31    32    1
    24    32    33    1
    25    16    17    1
    26    17    18   ar
    27    18    19   ar
    28    19    20   ar
    29    20    21    1
    30    20    22   ar
    31    22    23    1
    32    22    24   ar
    33     8     3    1
    34    33    29    1
    35    24    17   ar
    36    14     9   ar
@<TRIPOS>MOLECULE
*****
 33 36 0 0 0
SMALL
GASTEIGER

@<TRIPOS>ATOM
      1 C          62.9327   87.9249   12.4406 C.2     1  UNL1        0.2459
      2 O          61.8833   87.6633   11.4013 O.2     1  UNL1       -0.2730
      3 N          63.4970   86.7877   13.2397 N.am    1  UNL1       -0.2781
      4 C          64.5464   87.0493   14.2790 C.3     1  UNL1        0.0935
      5 C          65.1106   85.9121   15.0780 C.3     1  UNL1        0.0219
      6 C          64.6253   84.5133   14.8376 C.3     1  UNL1        0.0078
      7 C          63.5759   84.2516   13.7983 C.3     1  UNL1        0.0419
      8 C          63.0118   85.3888   12.9993 C.3     1  UNL1        0.0953
      9 C          63.0907   82.8527   13.5580 C.ar    1  UNL1       -0.0209
     10 C          61.9667   82.2970   14.3811 C.ar    1  UNL1       -0.0042
     11 C          61.4815   80.8981   14.1407 C.ar    1  UNL1       -0.0003
     12 C          62.1203   80.0550   13.0772 C.ar    1  UNL1       -0.0000
     13 C          63.2444   80.6108   12.2541 C.ar    1  UNL1       -0.0003
     14 C          63.7296   82.0097   12.4945 C.ar    1  UNL1       -0.0042
     15 C          63.4179   89.3238   12.6810 C.3     1  UNL1        0.1780
     16 N          63.2355   90.3728   11.6245 N.pl3   1  UNL1       -0.2868
     17 C          64.1537   91.5581   11.5780 C.ar    1  UNL1        0.0498
     18 C          64.3434   92.3099   10.2940 C.ar    1  UNL1        0.0155
     19 C          65.2615   93.4952   10.2474 C.ar    1  UNL1        0.0135
     20 C          65.9899   93.9286   11.4850 C.ar    1  UNL1        0.0683
     21 CL         66.9081   95.1139   11.4385 Cl      1  UNL1       -0.0814
     22 C          65.8003   93.1767   12.7690 C.ar    1  UNL1        0.0694
     23 CL         66.5288   93.6102   14.0066 Cl      1  UNL1       -0.0813
     24 C          64.8821   91.9915   12.8155 C.ar    1  UNL1        0.0268
     25 C          62.1349   90.2366   10.6145 C.3     1  UNL1        0.1986
     26 N          59.3162   90.9392   11.3636 N.1     1  UNL1       -0.1941
     27 C          60.7255   90.5879   10.9890 C.1     1  UNL1        0.0954
     28 C          61.9623   85.1272   11.9599 C.3     1  UNL1        0.0924
     29 N          62.3391   85.0808   10.5088 N.3     1  UNL1       -0.2713
     30 C          63.4878   84.3166    9.9201 C.3     1  UNL1        0.0722
     31 C          63.4920   84.5540    8.4390 C.3     1  UNL1        0.0188
     32 C          62.3460   85.4650    8.1123 C.3     1  UNL1        0.0188
     33 C          61.6335   85.7906    9.3915 C.3     1  UNL1        0.0722
@<TRIPOS>BOND
     1    26    27    3
     2    27    25    1
     3    25    16    1
     4    16    15    1
     5    15     1    1
     6     1     2    2
     7     1     3   am
     8     3     4    1
     9     4     5    1
    10     5     6    1
    11     6     7    1
    12     7     9    1
    13     9    10   ar
    14    10    11   ar
    15    11    12   ar
    16    12    13   ar
    17    13    14   ar
    18     7     8    1
    19     8    28    1
    20    28    29    1
    21    29    30    1
    22    30    31    1
    23    31    32    1
    24    32    33    1
    25    16    17    1
    26    17    18   ar
    27    18    19   ar
    28    19    20   ar
    29    20    21    1
    30    20    22   ar
    31    22    23    1
    32    22    24   ar
    33     8     3    1
    34    33    29    1
    35    24    17   ar
    36    14     9   ar
@<TRIPOS>MOLECULE
*****
 33 36 0 0 0
SMALL
GASTEIGER

@<TRIPOS>ATOM
      1 C          62.8855   90.3319   11.4498 C.2     1  UNL1        0.2459
      2 O          63.7062   90.8099   10.2889 O.2     1  UNL1       -0.2730
      3 N          63.4074   90.4790   12.8484 N.am    1  UNL1       -0.2781
      4 C          62.5867   90.0010   14.0094 C.3     1  UNL1        0.0935
      5 C          63.1087   90.1480   15.4079 C.3     1  UNL1        0.0219
      6 C          64.4514   90.7731   15.6454 C.3     1  UNL1        0.0078
      7 C          65.2721   91.2511   14.4845 C.3     1  UNL1        0.0419
      8 C          64.7501   91.1040   13.0860 C.3     1  UNL1        0.0953
      9 C          66.6148   91.8762   14.7221 C.ar    1  UNL1       -0.0209
     10 C          66.7740   92.9345   15.7730 C.ar    1  UNL1       -0.0042
     11 C          68.1167   93.5596   16.0105 C.ar    1  UNL1       -0.0003
     12 C          69.3002   93.1263   15.1972 C.ar    1  UNL1       -0.0000
     13 C          69.1410   92.0679   14.1463 C.ar    1  UNL1       -0.0003
     14 C          67.7983   91.4429   13.9087 C.ar    1  UNL1       -0.0042
     15 C          61.5428   89.7069   11.2123 C.3     1  UNL1        0.1780
     16 N          61.3565   88.7359   10.0843 N.pl3   1  UNL1       -0.2868
     17 C          61.9507   87.3614   10.1719 C.ar    1  UNL1        0.0498
     18 C          62.4184   86.6657    8.9280 C.ar    1  UNL1        0.0155
     19 C          63.0126   85.2913    9.0156 C.ar    1  UNL1        0.0135
     20 C          63.1392   84.6124   10.3472 C.ar    1  UNL1        0.0683
     21 CL         63.7334   83.2379   10.4349 Cl      1  UNL1       -0.0814
     22 C          62.6716   85.3081   11.5911 C.ar    1  UNL1        0.0694
     23 CL         62.7982   84.6292   12.9228 Cl      1  UNL1       -0.0813
     24 C          62.0773   86.6825   11.5035 C.ar    1  UNL1        0.0268
     25 C          60.5760   89.1394    8.8685 C.3     1  UNL1        0.1986
     26 N          58.6425   87.2147    7.6205 N.1     1  UNL1       -0.1941
     27 C          59.6092   88.1770    8.2445 C.1     1  UNL1        0.0954
     28 C          65.5709   91.5820   11.9249 C.3     1  UNL1        0.0924
     29 N          65.6777   93.0500   11.6359 N.3     1  UNL1       -0.2713
     30 C          66.2261   94.0937   12.5632 C.3     1  UNL1        0.0722
     31 C          66.1421   95.4208   11.8692 C.3     1  UNL1        0.0188
     32 C          65.5418   95.1974   10.5128 C.3     1  UNL1        0.0188
     33 C          65.2548   93.7322   10.3686 C.3     1  UNL1        0.0722
@<TRIPOS>BOND
     1    26    27    3
     2    27    25    1
     3    25    16    1
     4    16    15    1
     5    15     1    1
     6     1     2    2
     7     1     3   am
     8     3     4    1
     9     4     5    1
    10     5     6    1
    11     6     7    1
    12     7     9    1
    13     9    10   ar
    14    10    11   ar
    15    11    12   ar
    16    12    13   ar
    17    13    14   ar
    18     7     8    1
    19     8    28    1
    20    28    29    1
    21    29    30    1
    22    30    31    1
    23    31    32    1
    24    32    33    1
    25    16    17    1
    26    17    18   ar
    27    18    19   ar
    28    19    20   ar
    29    20    21    1
    30    20    22   ar
    31    22    23    1
    32    22    24   ar
    33     8     3    1
    34    33    29    1
    35    24    17   ar
    36    14     9   ar
@<TRIPOS>MOLECULE
*****
 33 36 0 0 0
SMALL
GASTEIGER

@<TRIPOS>ATOM
      1 C          63.0523   89.4170   11.3847 C.2     1  UNL1        0.2459
      2 O          63.2253   88.3203   12.3934 O.2     1  UNL1       -0.2730
      3 N          63.8691   90.6706   11.4923 N.am    1  UNL1       -0.2781
      4 C          63.6962   91.7672   10.4836 C.3     1  UNL1        0.0935
      5 C          64.5130   93.0207   10.5912 C.3     1  UNL1        0.0219
      6 C          65.5027   93.1775   11.7074 C.3     1  UNL1        0.0078
      7 C          65.6757   92.0809   12.7160 C.3     1  UNL1        0.0419
      8 C          64.8589   90.8274   12.6084 C.3     1  UNL1        0.0953
      9 C          66.6654   92.2377   13.8322 C.ar    1  UNL1       -0.0209
     10 C          68.1001   91.8540   13.6218 C.ar    1  UNL1       -0.0042
     11 C          69.0898   92.0108   14.7380 C.ar    1  UNL1       -0.0003
     12 C          68.6448   92.5513   16.0645 C.ar    1  UNL1       -0.0000
     13 C          67.2101   92.9349   16.2749 C.ar    1  UNL1       -0.0003
     14 C          66.2204   92.7781   15.1588 C.ar    1  UNL1       -0.0042
     15 C          62.0626   89.2602   10.2686 C.3     1  UNL1        0.1780
     16 N          61.2852   87.9850   10.1292 N.pl3   1  UNL1       -0.2868
     17 C          62.0014   86.6671   10.1200 C.ar    1  UNL1        0.0498
     18 C          62.6690   86.1850    8.8662 C.ar    1  UNL1        0.0155
     19 C          63.3853   84.8671    8.8570 C.ar    1  UNL1        0.0135
     20 C          63.4339   84.0313   10.1016 C.ar    1  UNL1        0.0683
     21 CL         64.1502   82.7133   10.0924 Cl      1  UNL1       -0.0814
     22 C          62.7664   84.5134   11.3554 C.ar    1  UNL1        0.0694
     23 CL         62.8150   83.6775   12.6000 Cl      1  UNL1       -0.0813
     24 C          62.0501   85.8312   11.3646 C.ar    1  UNL1        0.0268
     25 C          59.7914   88.0277    9.9989 C.3     1  UNL1        0.1986
     26 N          58.4521   86.7185    7.6554 N.1     1  UNL1       -0.1941
     27 C          59.1217   87.3731    8.8271 C.1     1  UNL1        0.0954
     28 C          65.0318   89.7306   13.6171 C.3     1  UNL1        0.0924
     29 N          64.2275   89.7424   14.8832 N.3     1  UNL1       -0.2713
     30 C          63.7286   88.5362   15.6221 C.3     1  UNL1        0.0722
     31 C          62.9736   89.0108   16.8282 C.3     1  UNL1        0.0188
     32 C          63.0059   90.5104   16.8348 C.3     1  UNL1        0.0188
     33 C          63.7809   90.9626   15.6327 C.3     1  UNL1        0.0722
@<TRIPOS>BOND
     1    26    27    3
     2    27    25    1
     3    25    16    1
     4    16    15    1
     5    15     1    1
     6     1     2    2
     7     1     3   am
     8     3     4    1
     9     4     5    1
    10     5     6    1
    11     6     7    1
    12     7     9    1
    13     9    10   ar
    14    10    11   ar
    15    11    12   ar
    16    12    13   ar
    17    13    14   ar
    18     7     8    1
    19     8    28    1
    20    28    29    1
    21    29    30    1
    22    30    31    1
    23    31    32    1
    24    32    33    1
    25    16    17    1
    26    17    18   ar
    27    18    19   ar
    28    19    20   ar
    29    20    21    1
    30    20    22   ar
    31    22    23    1
    32    22    24   ar
    33     8     3    1
    34    33    29    1
    35    24    17   ar
    36    14     9   ar
@<TRIPOS>MOLECULE
*****
 33 36 0 0 0
SMALL
GASTEIGER

@<TRIPOS>ATOM
      1 C          63.6244   87.0127   13.7651 C.2     1  UNL1        0.2459
      2 O          63.1647   85.5976   13.9551 O.2     1  UNL1       -0.2730
      3 N          63.2186   87.7749   12.5385 N.am    1  UNL1       -0.2781
      4 C          63.6784   89.1900   12.3485 C.3     1  UNL1        0.0935
      5 C          63.2725   89.9521   11.1220 C.3     1  UNL1        0.0219
      6 C          62.4069   89.2992   10.0855 C.3     1  UNL1        0.0078
      7 C          61.9471   87.8841   10.2755 C.3     1  UNL1        0.0419
      8 C          62.3530   87.1220   11.5020 C.3     1  UNL1        0.0953
      9 C          61.0815   87.2312    9.2390 C.ar    1  UNL1       -0.0209
     10 C          61.6675   86.2148    8.3044 C.ar    1  UNL1       -0.0042
     11 C          60.8019   85.5619    7.2679 C.ar    1  UNL1       -0.0003
     12 C          59.3502   85.9254    7.1660 C.ar    1  UNL1       -0.0000
     13 C          58.7641   86.9417    8.1005 C.ar    1  UNL1       -0.0003
     14 C          59.6298   87.5947    9.1370 C.ar    1  UNL1       -0.0042
     15 C          64.4901   87.6656   14.8016 C.3     1  UNL1        0.1780
     16 N          64.0061   88.8905   15.5196 N.pl3   1  UNL1       -0.2868
     17 C          64.7170   90.1984   15.3344 C.ar    1  UNL1        0.0498
     18 C          64.4186   91.3500   16.2480 C.ar    1  UNL1        0.0155
     19 C          65.1294   92.6579   16.0629 C.ar    1  UNL1        0.0135
     20 C          66.1386   92.8140   14.9643 C.ar    1  UNL1        0.0683
     21 CL         66.8494   94.1219   14.7791 Cl      1  UNL1       -0.0814
     22 C          66.4370   91.6624   14.0507 C.ar    1  UNL1        0.0694
     23 CL         67.4462   91.8186   12.9520 Cl      1  UNL1       -0.0813
     24 C          65.7262   90.3545   14.2358 C.ar    1  UNL1        0.0268
     25 C          62.8114   88.8075   16.4227 C.3     1  UNL1        0.1986
     26 N          62.3425   86.3427   18.0674 N.1     1  UNL1       -0.1941
     27 C          62.5770   87.5751   17.2451 C.1     1  UNL1        0.0954
     28 C          61.8932   85.7069   11.6921 C.3     1  UNL1        0.0924
     29 N          62.7588   84.5695   11.2369 N.3     1  UNL1       -0.2713
     30 C          62.9903   83.2862   11.9782 C.3     1  UNL1        0.0722
     31 C          63.9195   82.4393   11.1599 C.3     1  UNL1        0.0188
     32 C          64.2621   83.1992    9.9128 C.3     1  UNL1        0.0188
     33 C          63.5447   84.5157    9.9604 C.3     1  UNL1        0.0722
@<TRIPOS>BOND
     1    26    27    3
     2    27    25    1
     3    25    16    1
     4    16    15    1
     5    15     1    1
     6     1     2    2
     7     1     3   am
     8     3     4    1
     9     4     5    1
    10     5     6    1
    11     6     7    1
    12     7     9    1
    13     9    10   ar
    14    10    11   ar
    15    11    12   ar
    16    12    13   ar
    17    13    14   ar
    18     7     8    1
    19     8    28    1
    20    28    29    1
    21    29    30    1
    22    30    31    1
    23    31    32    1
    24    32    33    1
    25    16    17    1
    26    17    18   ar
    27    18    19   ar
    28    19    20   ar
    29    20    21    1
    30    20    22   ar
    31    22    23    1
    32    22    24   ar
    33     8     3    1
    34    33    29    1
    35    24    17   ar
    36    14     9   ar
@<TRIPOS>MOLECULE
*****
 33 36 0 0 0
SMALL
GASTEIGER

@<TRIPOS>ATOM
      1 C          64.3403   90.6008   13.6355 C.2     1  UNL1        0.2459
      2 O          63.8802   91.6026   12.6183 O.2     1  UNL1       -0.2730
      3 N          64.0431   89.1435   13.4407 N.am    1  UNL1       -0.2781
      4 C          64.5032   88.1417   14.4578 C.3     1  UNL1        0.0935
      5 C          64.2061   86.6844   14.2630 C.3     1  UNL1        0.0219
      6 C          63.4488   86.2289   13.0509 C.3     1  UNL1        0.0078
      7 C          62.9887   87.2307   12.0337 C.3     1  UNL1        0.0419
      8 C          63.2858   88.6880   12.2286 C.3     1  UNL1        0.0953
      9 C          62.2314   86.7752   10.8217 C.ar    1  UNL1       -0.0209
     10 C          60.7449   86.9634   10.7515 C.ar    1  UNL1       -0.0042
     11 C          59.9876   86.5079    9.5395 C.ar    1  UNL1       -0.0003
     12 C          60.7168   85.8642    8.3976 C.ar    1  UNL1       -0.0000
     13 C          62.2033   85.6760    8.4678 C.ar    1  UNL1       -0.0003
     14 C          62.9606   86.1315    9.6798 C.ar    1  UNL1       -0.0042
     15 C          65.0976   91.0563   14.8475 C.3     1  UNL1        0.1780
     16 N          66.3486   91.8685   14.6889 N.pl3   1  UNL1       -0.2868
     17 C          66.6830   92.4791   13.3601 C.ar    1  UNL1        0.0498
     18 C          67.5468   91.7321   12.3876 C.ar    1  UNL1        0.0155
     19 C          67.8812   92.3426   11.0589 C.ar    1  UNL1        0.0135
     20 C          67.3517   93.7000   10.7027 C.ar    1  UNL1        0.0683
     21 CL         67.6860   94.3106    9.3740 Cl      1  UNL1       -0.0814
     22 C          66.4879   94.4470   11.6753 C.ar    1  UNL1        0.0694
     23 CL         65.9584   95.8045   11.3190 Cl      1  UNL1       -0.0813
     24 C          66.1535   93.8365   13.0039 C.ar    1  UNL1        0.0268
     25 C          67.2653   92.0702   15.8589 C.3     1  UNL1        0.1986
     26 N          68.8907   94.5824   16.0753 N.1     1  UNL1       -0.1941
     27 C          68.0780   93.3264   15.9671 C.1     1  UNL1        0.0954
     28 C          62.8257   89.6898   11.2114 C.3     1  UNL1        0.0924
     29 N          61.3693   90.0313   11.1005 N.3     1  UNL1       -0.2713
     30 C          60.6194   90.2928    9.8280 C.3     1  UNL1        0.0722
     31 C          59.1937   90.5943   10.1837 C.3     1  UNL1        0.0188
     32 C          59.0625   90.5191   11.6760 C.3     1  UNL1        0.0188
     33 C          60.4071   90.1712   12.2426 C.3     1  UNL1        0.0722
@<TRIPOS>BOND
     1    26    27    3
     2    27    25    1
     3    25    16    1
     4    16    15    1
     5    15     1    1
     6     1     2    2
     7     1     3   am
     8     3     4    1
     9     4     5    1
    10     5     6    1
    11     6     7    1
    12     7     9    1
    13     9    10   ar
    14    10    11   ar
    15    11    12   ar
    16    12    13   ar
    17    13    14   ar
    18     7     8    1
    19     8    28    1
    20    28    29    1
    21    29    30    1
    22    30    31    1
    23    31    32    1
    24    32    33    1
    25    16    17    1
    26    17    18   ar
    27    18    19   ar
    28    19    20   ar
    29    20    21    1
    30    20    22   ar
    31    22    23    1
    32    22    24   ar
    33     8     3    1
    34    33    29    1
    35    24    17   ar
    36    14     9   ar
