@<TRIPOS>MOLECULE
*****
 44 47 0 0 0
SMALL
GASTEIGER

@<TRIPOS>ATOM
      1 C          63.1891   90.7295   12.2814 C.ar    1  UNL1        0.1486
      2 C          63.0800   89.4873   13.1152 C.ar    1  UNL1        0.0749
      3 C          64.0873   89.2167   14.1931 C.ar    1  UNL1        0.1486
      4 C          65.2038   90.1882   14.4373 C.ar    1  UNL1        0.0441
      5 C          65.3129   91.4304   13.6036 C.ar    1  UNL1        0.0817
      6 C          64.3055   91.7011   12.5256 C.ar    1  UNL1        0.0441
      7 C          66.4293   92.4020   13.8479 C.2     1  UNL1        0.3413
      8 O          66.4754   93.1856   15.1261 O.2     1  UNL1       -0.2449
      9 O          67.4996   92.5899   12.8139 O.3     1  UNL1       -0.4492
     10 C          67.2092   93.3720   11.5674 C.3     1  UNL1        0.1692
     11 C          67.7845   92.9308   10.2541 C.3     1  UNL1        0.0450
     12 C          67.4941   93.7129    9.0075 C.3     1  UNL1        0.0192
     13 C          66.6284   94.9361    9.0742 C.3     1  UNL1        0.0510
     14 N          66.3380   95.7182    7.8276 N.3     1  UNL1       -0.3222
     15 C          66.0531   95.3772   10.3874 C.3     1  UNL1        0.0192
     16 C          66.3435   94.5951   11.6339 C.3     1  UNL1        0.0450
     17 H          66.8055   95.2795    7.0343 H       1  UNL1        0.1188
     18 H          66.6794   96.6730    7.9379 H       1  UNL1        0.1188
     19 O          62.1817   91.0001   11.2035 O.3     1  UNL1       -0.4534
     20 C          60.5614   87.6048    8.7343 C.ar    1  UNL1        0.0815
     21 C          61.9055   87.4816    9.3886 C.ar    1  UNL1        0.0105
     22 C          62.4456   88.6134   10.2117 C.ar    1  UNL1        0.0377
     23 C          61.6416   89.8683   10.3804 C.ar    1  UNL1        0.1453
     24 C          60.2975   89.9916    9.7262 C.ar    1  UNL1        0.0377
     25 C          59.7574   88.8598    8.9031 C.ar    1  UNL1        0.0105
     26 N          58.5521   86.3917    7.6204 N.2     1  UNL1       -0.0994
     27 C          60.0213   86.4731    7.9113 C.2     1  UNL1        0.3093
     28 N          60.9505   85.4226    7.3791 N.pl3   1  UNL1       -0.2466
     29 H          58.1976   85.6489    7.0802 H       1  UNL1        0.3633
     30 H          60.5960   84.6798    6.8389 H       1  UNL1        0.2884
     31 H          61.9148   85.4760    7.5700 H       1  UNL1        0.2884
     32 O          63.9783   87.9745   15.0269 O.3     1  UNL1       -0.4534
     33 C          64.0665   86.6252   14.3775 C.ar    1  UNL1        0.1453
     34 C          63.2602   86.3308   13.1473 C.ar    1  UNL1        0.0377
     35 C          63.3484   84.9816   12.4979 C.ar    1  UNL1        0.0105
     36 C          64.2428   83.9267   13.0787 C.ar    1  UNL1        0.0815
     37 C          65.0490   84.2211   14.3088 C.ar    1  UNL1        0.0105
     38 C          64.9609   85.5704   14.9582 C.ar    1  UNL1        0.0377
     39 C          64.3310   82.5774   12.4293 C.2     1  UNL1        0.3093
     40 N          64.8671   82.4501   11.0342 N.2     1  UNL1       -0.0994
     41 N          63.8831   81.3554   13.1751 N.pl3   1  UNL1       -0.2466
     42 H          65.1610   83.2522   10.5447 H       1  UNL1        0.3633
     43 H          63.5312   81.4390   14.0908 H       1  UNL1        0.2884
     44 H          63.9409   80.4699   12.7489 H       1  UNL1        0.2884
@<TRIPOS>BOND
     1    26    27    2
     2    27    28    1
     3    27    20    1
     4    20    21   ar
     5    21    22   ar
     6    22    23   ar
     7    23    19    1
     8    19     1    1
     9     1     2   ar
    10     2     3   ar
    11     3    32    1
    12    32    33    1
    13    33    34   ar
    14    34    35   ar
    15    35    36   ar
    16    36    39    1
    17    39    40    2
    18    39    41    1
    19    36    37   ar
    20    37    38   ar
    21     3     4   ar
    22     4     5   ar
    23     5     7    1
    24     7     8    2
    25     7     9    1
    26    10     9    1
    27    10    11    1
    28    11    12    1
    29    12    13    1
    30    13    14    1
    31    13    15    1
    32    15    16    1
    33     5     6   ar
    34    23    24   ar
    35    24    25   ar
    36    25    20   ar
    37     6     1   ar
    38    38    33   ar
    39    16    10    1
    40    26    29    1
    41    28    30    1
    42    28    31    1
    43    40    42    1
    44    41    43    1
    45    41    44    1
    46    14    17    1
    47    14    18    1
@<TRIPOS>MOLECULE
*****
 44 47 0 0 0
SMALL
GASTEIGER

@<TRIPOS>ATOM
      1 C          64.0335   88.8423   14.1857 C.ar    1  UNL1        0.1486
      2 C          63.0837   89.1714   13.0723 C.ar    1  UNL1        0.0749
      3 C          63.1810   90.4930   12.3695 C.ar    1  UNL1        0.1486
      4 C          64.2280   91.4855   12.7801 C.ar    1  UNL1        0.0441
      5 C          65.1777   91.1565   13.8935 C.ar    1  UNL1        0.0817
      6 C          65.0805   89.8349   14.5963 C.ar    1  UNL1        0.0441
      7 C          66.2247   92.1491   14.3041 C.2     1  UNL1        0.3413
      8 O          67.3325   91.7327   15.2258 O.2     1  UNL1       -0.2449
      9 O          66.1640   93.5580   13.7930 O.3     1  UNL1       -0.4492
     10 C          66.4723   93.8477   12.3539 C.3     1  UNL1        0.1692
     11 C          67.0728   92.7816   11.4862 C.3     1  UNL1        0.0450
     12 C          67.3811   93.0714   10.0471 C.3     1  UNL1        0.0192
     13 C          67.0889   94.4272    9.4757 C.3     1  UNL1        0.0510
     14 N          67.3972   94.7170    8.0366 N.3     1  UNL1       -0.3222
     15 C          66.4885   95.4933   10.3435 C.3     1  UNL1        0.0192
     16 C          66.1802   95.2035   11.7826 C.3     1  UNL1        0.0450
     17 H          67.7975   93.8862    7.6007 H       1  UNL1        0.1188
     18 H          68.0651   95.4859    7.9801 H       1  UNL1        0.1188
     19 O          63.9363   87.5207   14.8885 O.3     1  UNL1       -0.4534
     20 C          63.8901   83.7035   12.5060 C.ar    1  UNL1        0.0815
     21 C          64.7196   83.7999   13.7520 C.ar    1  UNL1        0.0105
     22 C          64.7350   85.0723   14.5462 C.ar    1  UNL1        0.0377
     23 C          63.9209   86.2483   14.0943 C.ar    1  UNL1        0.1453
     24 C          63.0915   86.1519   12.8482 C.ar    1  UNL1        0.0377
     25 C          63.0761   84.8795   12.0541 C.ar    1  UNL1        0.0105
     26 N          64.5529   82.3729   10.3751 N.2     1  UNL1       -0.0994
     27 C          63.8747   82.4310   11.7118 C.2     1  UNL1        0.3093
     28 N          63.1811   81.2167   12.2543 N.pl3   1  UNL1       -0.2466
     29 H          64.5428   81.5378    9.8539 H       1  UNL1        0.3633
     30 H          63.1710   80.3816   11.7330 H       1  UNL1        0.2884
     31 H          62.7360   81.2548   13.1316 H       1  UNL1        0.2884
     32 O          62.2312   90.8220   11.2561 O.3     1  UNL1       -0.4534
     33 C          61.6580   89.7240   10.4101 C.ar    1  UNL1        0.1453
     34 C          60.2864   89.8696    9.8205 C.ar    1  UNL1        0.0377
     35 C          59.7132   88.7715    8.9746 C.ar    1  UNL1        0.0105
     36 C          60.5116   87.5278    8.7181 C.ar    1  UNL1        0.0815
     37 C          61.8832   87.3822    9.3077 C.ar    1  UNL1        0.0105
     38 C          62.4564   88.4803   10.1536 C.ar    1  UNL1        0.0377
     39 C          59.9385   86.4297    7.8721 C.2     1  UNL1        0.3093
     40 N          58.4633   86.3813    7.6046 N.2     1  UNL1       -0.0994
     41 N          60.8405   85.3800    7.2937 N.pl3   1  UNL1       -0.2466
     42 H          57.8713   87.0702    7.9843 H       1  UNL1        0.3633
     43 H          61.8087   85.4118    7.4693 H       1  UNL1        0.2884
     44 H          60.4643   84.6593    6.7384 H       1  UNL1        0.2884
@<TRIPOS>BOND
     1    26    27    2
     2    27    28    1
     3    27    20    1
     4    20    21   ar
     5    21    22   ar
     6    22    23   ar
     7    23    19    1
     8    19     1    1
     9     1     2   ar
    10     2     3   ar
    11     3    32    1
    12    32    33    1
    13    33    34   ar
    14    34    35   ar
    15    35    36   ar
    16    36    39    1
    17    39    40    2
    18    39    41    1
    19    36    37   ar
    20    37    38   ar
    21     3     4   ar
    22     4     5   ar
    23     5     7    1
    24     7     8    2
    25     7     9    1
    26    10     9    1
    27    10    11    1
    28    11    12    1
    29    12    13    1
    30    13    14    1
    31    13    15    1
    32    15    16    1
    33     5     6   ar
    34    23    24   ar
    35    24    25   ar
    36    25    20   ar
    37     6     1   ar
    38    38    33   ar
    39    16    10    1
    40    26    29    1
    41    28    30    1
    42    28    31    1
    43    40    42    1
    44    41    43    1
    45    41    44    1
    46    14    17    1
    47    14    18    1
@<TRIPOS>MOLECULE
*****
 44 47 0 0 0
SMALL
GASTEIGER

@<TRIPOS>ATOM
      1 C          62.8973   90.6109   12.2426 C.ar    1  UNL1        0.1486
      2 C          64.0942   91.5071   12.1235 C.ar    1  UNL1        0.0749
      3 C          65.2588   91.3304   13.0522 C.ar    1  UNL1        0.1486
      4 C          65.2265   90.2575   14.1000 C.ar    1  UNL1        0.0441
      5 C          64.0296   89.3613   14.2191 C.ar    1  UNL1        0.0817
      6 C          62.8650   89.5380   13.2904 C.ar    1  UNL1        0.0441
      7 C          63.9973   88.2884   15.2668 C.2     1  UNL1        0.3413
      8 O          63.1529   88.4639   16.4942 O.2     1  UNL1       -0.2449
      9 O          64.8093   87.0401   15.0873 O.3     1  UNL1       -0.4492
     10 C          64.1819   85.8171   14.4868 C.3     1  UNL1        0.1692
     11 C          64.2592   84.5037   15.2074 C.3     1  UNL1        0.0450
     12 C          63.6317   83.2808   14.6068 C.3     1  UNL1        0.0192
     13 C          62.9271   83.3711   13.2856 C.3     1  UNL1        0.0510
     14 N          62.2997   82.1482   12.6851 N.3     1  UNL1       -0.3222
     15 C          62.8499   84.6845   12.5651 C.3     1  UNL1        0.0192
     16 C          63.4773   85.9074   13.1657 C.3     1  UNL1        0.0450
     17 H          62.4469   81.3514   13.3047 H       1  UNL1        0.1188
     18 H          62.7266   81.9573   11.7785 H       1  UNL1        0.1188
     19 O          61.7327   90.7875   11.3139 O.3     1  UNL1       -0.4534
     20 C          60.4752   87.4137    8.6147 C.ar    1  UNL1        0.0815
     21 C          61.6680   87.2532    9.5099 C.ar    1  UNL1        0.0105
     22 C          62.0872   88.3779   10.4096 C.ar    1  UNL1        0.0377
     23 C          61.3135   89.6629   10.4142 C.ar    1  UNL1        0.1453
     24 C          60.1207   89.8233    9.5190 C.ar    1  UNL1        0.0377
     25 C          59.7015   88.6987    8.6193 C.ar    1  UNL1        0.0105
     26 N          58.6036   86.0774    7.4058 N.2     1  UNL1       -0.0994
     27 C          60.0560   86.2890    7.7150 C.2     1  UNL1        0.3093
     28 N          61.0892   85.3760    7.1245 N.pl3   1  UNL1       -0.2466
     29 H          58.3285   85.3393    6.8152 H       1  UNL1        0.3633
     30 H          60.8141   84.6379    6.5340 H       1  UNL1        0.2884
     31 H          62.0425   85.5149    7.3275 H       1  UNL1        0.2884
     32 O          66.4558   92.2266   12.9331 O.3     1  UNL1       -0.4534
     33 C          66.5624   93.1870   11.7858 C.ar    1  UNL1        0.1453
     34 C          66.1308   94.6131   11.9589 C.ar    1  UNL1        0.0377
     35 C          66.2374   95.5735   10.8115 C.ar    1  UNL1        0.0105
     36 C          66.7758   95.1077    9.4912 C.ar    1  UNL1        0.0815
     37 C          67.2074   93.6817    9.3181 C.ar    1  UNL1        0.0105
     38 C          67.1007   92.7213   10.4655 C.ar    1  UNL1        0.0377
     39 C          66.8824   96.0681    8.3438 C.2     1  UNL1        0.3093
     40 N          65.7291   96.2406    7.4005 N.2     1  UNL1       -0.0994
     41 N          68.1425   96.8559    8.1399 N.pl3   1  UNL1       -0.2466
     42 H          64.9020   95.7236    7.5344 H       1  UNL1        0.3633
     43 H          68.8995   96.7427    8.7591 H       1  UNL1        0.2884
     44 H          68.2126   97.4862    7.3869 H       1  UNL1        0.2884
@<TRIPOS>BOND
     1    26    27    2
     2    27    28    1
     3    27    20    1
     4    20    21   ar
     5    21    22   ar
     6    22    23   ar
     7    23    19    1
     8    19     1    1
     9     1     2   ar
    10     2     3   ar
    11     3    32    1
    12    32    33    1
    13    33    34   ar
    14    34    35   ar
    15    35    36   ar
    16    36    39    1
    17    39    40    2
    18    39    41    1
    19    36    37   ar
    20    37    38   ar
    21     3     4   ar
    22     4     5   ar
    23     5     7    1
    24     7     8    2
    25     7     9    1
    26    10     9    1
    27    10    11    1
    28    11    12    1
    29    12    13    1
    30    13    14    1
    31    13    15    1
    32    15    16    1
    33     5     6   ar
    34    23    24   ar
    35    24    25   ar
    36    25    20   ar
    37     6     1   ar
    38    38    33   ar
    39    16    10    1
    40    26    29    1
    41    28    30    1
    42    28    31    1
    43    40    42    1
    44    41    43    1
    45    41    44    1
    46    14    17    1
    47    14    18    1
@<TRIPOS>MOLECULE
*****
 44 47 0 0 0
SMALL
GASTEIGER

@<TRIPOS>ATOM
      1 C          64.4907   90.4420   13.5832 C.ar    1  UNL1        0.1486
      2 C          64.8344   89.2580   14.4377 C.ar    1  UNL1        0.0749
      3 C          64.2272   87.9185   14.1426 C.ar    1  UNL1        0.1486
      4 C          63.2762   87.7630   12.9930 C.ar    1  UNL1        0.0441
      5 C          62.9325   88.9469   12.1386 C.ar    1  UNL1        0.0817
      6 C          63.5398   90.2865   12.4337 C.ar    1  UNL1        0.0441
      7 C          61.9816   88.7914   10.9890 C.2     1  UNL1        0.3413
      8 O          61.8443   89.8888    9.9755 O.2     1  UNL1       -0.2449
      9 O          61.1679   87.5387   10.8529 O.3     1  UNL1       -0.4492
     10 C          61.2422   86.7294    9.5922 C.3     1  UNL1        0.1692
     11 C          62.5088   86.0082    9.2374 C.3     1  UNL1        0.0450
     12 C          62.5830   85.1989    7.9766 C.3     1  UNL1        0.0192
     13 C          61.3907   85.1108    7.0707 C.3     1  UNL1        0.0510
     14 N          61.4650   84.3014    5.8099 N.3     1  UNL1       -0.3222
     15 C          60.1242   85.8319    7.4255 C.3     1  UNL1        0.0192
     16 C          60.0500   86.6412    8.6862 C.3     1  UNL1        0.0450
     17 H          62.3919   83.8837    5.7282 H       1  UNL1        0.1188
     18 H          61.2926   84.9064    5.0069 H       1  UNL1        0.1188
     19 O          65.0980   91.7814   13.8783 O.3     1  UNL1       -0.4534
     20 C          66.2070   94.5422   10.5022 C.ar    1  UNL1        0.0815
     21 C          65.5337   93.2339   10.2109 C.ar    1  UNL1        0.0105
     22 C          65.1640   92.3136   11.3362 C.ar    1  UNL1        0.0377
     23 C          65.4676   92.7017   12.7530 C.ar    1  UNL1        0.1453
     24 C          66.1409   94.0100   13.0443 C.ar    1  UNL1        0.0377
     25 C          66.5106   94.9303   11.9190 C.ar    1  UNL1        0.0105
     26 N          65.5639   96.4255    8.8320 N.2     1  UNL1       -0.0994
     27 C          66.5767   95.4625    9.3768 C.2     1  UNL1        0.3093
     28 N          67.9591   95.4197    8.7963 N.pl3   1  UNL1       -0.2466
     29 H          65.8066   97.0295    8.0934 H       1  UNL1        0.3633
     30 H          68.2017   96.0237    8.0577 H       1  UNL1        0.2884
     31 H          68.6238   94.7876    9.1539 H       1  UNL1        0.2884
     32 O          64.5709   86.7345   14.9971 O.3     1  UNL1       -0.4534
     33 C          63.9750   85.3920   14.6930 C.ar    1  UNL1        0.1453
     34 C          62.7234   84.9512   15.3925 C.ar    1  UNL1        0.0377
     35 C          62.1275   83.6086   15.0885 C.ar    1  UNL1        0.0105
     36 C          62.7832   82.7068   14.0850 C.ar    1  UNL1        0.0815
     37 C          64.0348   83.1477   13.3856 C.ar    1  UNL1        0.0105
     38 C          64.6307   84.4902   13.6896 C.ar    1  UNL1        0.0377
     39 C          62.1873   81.3643   13.7809 C.2     1  UNL1        0.3093
     40 N          60.9150   80.9391   14.4519 N.2     1  UNL1       -0.0994
     41 N          62.8639   80.4469   12.8058 N.pl3   1  UNL1       -0.2466
     42 H          60.4710   81.5412   15.0919 H       1  UNL1        0.3633
     43 H          63.6990   80.7259   12.3654 H       1  UNL1        0.2884
     44 H          62.4728   79.5657   12.6063 H       1  UNL1        0.2884
@<TRIPOS>BOND
     1    26    27    2
     2    27    28    1
     3    27    20    1
     4    20    21   ar
     5    21    22   ar
     6    22    23   ar
     7    23    19    1
     8    19     1    1
     9     1     2   ar
    10     2     3   ar
    11     3    32    1
    12    32    33    1
    13    33    34   ar
    14    34    35   ar
    15    35    36   ar
    16    36    39    1
    17    39    40    2
    18    39    41    1
    19    36    37   ar
    20    37    38   ar
    21     3     4   ar
    22     4     5   ar
    23     5     7    1
    24     7     8    2
    25     7     9    1
    26    10     9    1
    27    10    11    1
    28    11    12    1
    29    12    13    1
    30    13    14    1
    31    13    15    1
    32    15    16    1
    33     5     6   ar
    34    23    24   ar
    35    24    25   ar
    36    25    20   ar
    37     6     1   ar
    38    38    33   ar
    39    16    10    1
    40    26    29    1
    41    28    30    1
    42    28    31    1
    43    40    42    1
    44    41    43    1
    45    41    44    1
    46    14    17    1
    47    14    18    1
@<TRIPOS>MOLECULE
*****
 44 47 0 0 0
SMALL
GASTEIGER

@<TRIPOS>ATOM
      1 C          64.1914   89.1508   14.2554 C.ar    1  UNL1        0.1486
      2 C          65.1943   90.2660   14.2833 C.ar    1  UNL1        0.0749
      3 C          65.2017   91.2955   13.1924 C.ar    1  UNL1        0.1486
      4 C          64.2063   91.2098   12.0735 C.ar    1  UNL1        0.0441
      5 C          63.2035   90.0947   12.0456 C.ar    1  UNL1        0.0817
      6 C          63.1960   89.0652   13.1365 C.ar    1  UNL1        0.0441
      7 C          62.2081   90.0091   10.9267 C.2     1  UNL1        0.3413
      8 O          62.2941   90.9625    9.7718 O.2     1  UNL1       -0.2449
      9 O          61.1268   88.9702   10.9627 O.3     1  UNL1       -0.4492
     10 C          61.0406   87.9394    9.8763 C.3     1  UNL1        0.1692
     11 C          62.1549   86.9530    9.6882 C.3     1  UNL1        0.0450
     12 C          62.0687   85.9223    8.6018 C.3     1  UNL1        0.0192
     13 C          60.8681   85.8780    7.7036 C.3     1  UNL1        0.0510
     14 N          60.7819   84.8472    6.6173 N.3     1  UNL1       -0.3222
     15 C          59.7538   86.8643    7.8918 C.3     1  UNL1        0.0192
     16 C          59.8401   87.8951    8.9781 C.3     1  UNL1        0.0450
     17 H          61.6192   84.2649    6.6338 H       1  UNL1        0.1188
     18 H          60.7090   85.3123    5.7124 H       1  UNL1        0.1188
     19 O          64.1839   88.1214   15.3463 O.3     1  UNL1       -0.4534
     20 C          63.4390   83.7960   14.3533 C.ar    1  UNL1        0.0815
     21 C          63.4653   84.2431   15.7848 C.ar    1  UNL1        0.0105
     22 C          63.7136   85.6849   16.1158 C.ar    1  UNL1        0.0377
     23 C          63.9356   86.6796   15.0153 C.ar    1  UNL1        0.1453
     24 C          63.9093   86.2325   13.5837 C.ar    1  UNL1        0.0377
     25 C          63.6610   84.7907   13.2527 C.ar    1  UNL1        0.0105
     26 N          64.0445   81.6611   13.0022 N.2     1  UNL1       -0.0994
     27 C          63.1907   82.3542   14.0222 C.2     1  UNL1        0.3093
     28 N          62.0886   81.6055   14.7113 N.pl3   1  UNL1       -0.2466
     29 H          63.8815   80.7148   12.7849 H       1  UNL1        0.3633
     30 H          61.9257   80.6592   14.4940 H       1  UNL1        0.2884
     31 H          61.5282   82.0604   15.3808 H       1  UNL1        0.2884
     32 O          66.2046   92.4106   13.2203 O.3     1  UNL1       -0.4534
     33 C          66.3194   93.3454   12.0528 C.ar    1  UNL1        0.1453
     34 C          66.7164   92.8179   10.7059 C.ar    1  UNL1        0.0377
     35 C          66.8312   93.7526    9.5384 C.ar    1  UNL1        0.0105
     36 C          66.5491   95.2150    9.7179 C.ar    1  UNL1        0.0815
     37 C          66.1522   95.7424   11.0648 C.ar    1  UNL1        0.0105
     38 C          66.0374   94.8076   12.2323 C.ar    1  UNL1        0.0377
     39 C          66.6640   96.1497    8.5504 C.2     1  UNL1        0.3093
     40 N          65.4619   96.4409    7.7017 N.2     1  UNL1       -0.0994
     41 N          67.9809   96.7933    8.2317 N.pl3   1  UNL1       -0.2466
     42 H          64.5976   96.0185    7.9109 H       1  UNL1        0.3633
     43 H          68.7698   96.6022    8.7887 H       1  UNL1        0.2884
     44 H          68.0563   97.4069    7.4654 H       1  UNL1        0.2884
@<TRIPOS>BOND
     1    26    27    2
     2    27    28    1
     3    27    20    1
     4    20    21   ar
     5    21    22   ar
     6    22    23   ar
     7    23    19    1
     8    19     1    1
     9     1     2   ar
    10     2     3   ar
    11     3    32    1
    12    32    33    1
    13    33    34   ar
    14    34    35   ar
    15    35    36   ar
    16    36    39    1
    17    39    40    2
    18    39    41    1
    19    36    37   ar
    20    37    38   ar
    21     3     4   ar
    22     4     5   ar
    23     5     7    1
    24     7     8    2
    25     7     9    1
    26    10     9    1
    27    10    11    1
    28    11    12    1
    29    12    13    1
    30    13    14    1
    31    13    15    1
    32    15    16    1
    33     5     6   ar
    34    23    24   ar
    35    24    25   ar
    36    25    20   ar
    37     6     1   ar
    38    38    33   ar
    39    16    10    1
    40    26    29    1
    41    28    30    1
    42    28    31    1
    43    40    42    1
    44    41    43    1
    45    41    44    1
    46    14    17    1
    47    14    18    1
@<TRIPOS>MOLECULE
*****
 44 47 0 0 0
SMALL
GASTEIGER

@<TRIPOS>ATOM
      1 C          59.7221   88.5754    8.1395 C.ar    1  UNL1        0.1486
      2 C          60.0414   89.3592    9.3781 C.ar    1  UNL1        0.0749
      3 C          61.1426   88.9053   10.2898 C.ar    1  UNL1        0.1486
      4 C          61.9246   87.6677    9.9630 C.ar    1  UNL1        0.0441
      5 C          61.6054   86.8839    8.7246 C.ar    1  UNL1        0.0817
      6 C          60.5042   87.3378    7.8128 C.ar    1  UNL1        0.0441
      7 C          62.3874   85.6463    8.3978 C.2     1  UNL1        0.3413
      8 O          62.0011   84.8048    7.2176 O.2     1  UNL1       -0.2449
      9 O          63.5557   85.2502    9.2511 O.3     1  UNL1       -0.4492
     10 C          63.3912   84.1960   10.3054 C.3     1  UNL1        0.1692
     11 C          63.8863   82.8022   10.0560 C.3     1  UNL1        0.0450
     12 C          63.7218   81.7480   11.1103 C.3     1  UNL1        0.0192
     13 C          63.0622   82.0876   12.4140 C.3     1  UNL1        0.0510
     14 N          62.8977   81.0334   13.4684 N.3     1  UNL1       -0.3222
     15 C          62.5671   83.4814   12.6634 C.3     1  UNL1        0.0192
     16 C          62.7317   84.5356   11.6091 C.3     1  UNL1        0.0450
     17 H          63.2878   80.1528   13.1325 H       1  UNL1        0.1188
     18 H          61.9062   80.9097   13.6737 H       1  UNL1        0.1188
     19 O          58.6209   89.0293    7.2278 O.3     1  UNL1       -0.4534
     20 C          59.4829   92.0105    3.9690 C.ar    1  UNL1        0.0815
     21 C          60.6009   91.2095    4.5676 C.ar    1  UNL1        0.0105
     22 C          60.3136   90.2158    5.6539 C.ar    1  UNL1        0.0377
     23 C          58.9082   90.0230    6.1416 C.ar    1  UNL1        0.1453
     24 C          57.7902   90.8240    5.5429 C.ar    1  UNL1        0.0377
     25 C          58.0775   91.8177    4.4567 C.ar    1  UNL1        0.0105
     26 N          60.0754   94.4305    3.2326 N.2     1  UNL1       -0.0994
     27 C          59.7702   93.0042    2.8828 C.2     1  UNL1        0.3093
     28 N          59.7523   92.5716    1.4466 N.pl3   1  UNL1       -0.2466
     29 H          60.2640   95.0827    2.5196 H       1  UNL1        0.3633
     30 H          59.9409   93.2238    0.7337 H       1  UNL1        0.2884
     31 H          59.5520   91.6354    1.2170 H       1  UNL1        0.2884
     32 O          61.4619   89.6890   11.5283 O.3     1  UNL1       -0.4534
     33 C          62.7116   90.5161   11.5911 C.ar    1  UNL1        0.1453
     34 C          63.1975   91.2350   10.3675 C.ar    1  UNL1        0.0377
     35 C          64.4473   92.0622   10.4303 C.ar    1  UNL1        0.0105
     36 C          65.2112   92.1704   11.7167 C.ar    1  UNL1        0.0815
     37 C          64.7253   91.4514   12.9402 C.ar    1  UNL1        0.0105
     38 C          63.4756   90.6243   12.8774 C.ar    1  UNL1        0.0377
     39 C          66.4610   92.9975   11.7795 C.2     1  UNL1        0.3093
     40 N          66.4405   94.3374   12.4534 N.2     1  UNL1       -0.0994
     41 N          67.7312   92.4846   11.1683 N.pl3   1  UNL1       -0.2466
     42 H          65.6068   94.6740   12.8545 H       1  UNL1        0.3633
     43 H          67.7447   91.6052   10.7260 H       1  UNL1        0.2884
     44 H          68.5515   93.0275   11.2095 H       1  UNL1        0.2884
@<TRIPOS>BOND
     1    26    27    2
     2    27    28    1
     3    27    20    1
     4    20    21   ar
     5    21    22   ar
     6    22    23   ar
     7    23    19    1
     8    19     1    1
     9     1     2   ar
    10     2     3   ar
    11     3    32    1
    12    32    33    1
    13    33    34   ar
    14    34    35   ar
    15    35    36   ar
    16    36    39    1
    17    39    40    2
    18    39    41    1
    19    36    37   ar
    20    37    38   ar
    21     3     4   ar
    22     4     5   ar
    23     5     7    1
    24     7     8    2
    25     7     9    1
    26    10     9    1
    27    10    11    1
    28    11    12    1
    29    12    13    1
    30    13    14    1
    31    13    15    1
    32    15    16    1
    33     5     6   ar
    34    23    24   ar
    35    24    25   ar
    36    25    20   ar
    37     6     1   ar
    38    38    33   ar
    39    16    10    1
    40    26    29    1
    41    28    30    1
    42    28    31    1
    43    40    42    1
    44    41    43    1
    45    41    44    1
    46    14    17    1
    47    14    18    1
@<TRIPOS>MOLECULE
*****
 44 47 0 0 0
SMALL
GASTEIGER

@<TRIPOS>ATOM
      1 C          59.9241   88.5913    8.1866 C.ar    1  UNL1        0.1486
      2 C          60.5729   87.2420    8.0941 C.ar    1  UNL1        0.0749
      3 C          61.6984   86.8858    9.0195 C.ar    1  UNL1        0.1486
      4 C          62.1751   87.8790   10.0376 C.ar    1  UNL1        0.0441
      5 C          61.5264   89.2283   10.1301 C.ar    1  UNL1        0.0817
      6 C          60.4009   89.5844    9.2046 C.ar    1  UNL1        0.0441
      7 C          62.0031   90.2214   11.1482 C.2     1  UNL1        0.3413
      8 O          61.6062   90.0700   12.5868 O.2     1  UNL1       -0.2449
      9 O          62.8767   91.3659   10.7276 O.3     1  UNL1       -0.4492
     10 C          64.1369   91.6649   11.4842 C.3     1  UNL1        0.1692
     11 C          64.2831   91.2120   12.9068 C.3     1  UNL1        0.0450
     12 C          65.5433   91.5111   13.6633 C.3     1  UNL1        0.0192
     13 C          66.6574   92.2630   12.9973 C.3     1  UNL1        0.0510
     14 N          67.9176   92.5620   13.7539 N.3     1  UNL1       -0.3222
     15 C          66.5112   92.7158   11.5749 C.3     1  UNL1        0.0192
     16 C          65.2510   92.4168   10.8183 C.3     1  UNL1        0.0450
     17 H          67.8450   92.1838   14.6984 H       1  UNL1        0.1188
     18 H          68.0542   93.5717   13.8015 H       1  UNL1        0.1188
     19 O          58.7987   88.9474    7.2612 O.3     1  UNL1       -0.4534
     20 C          59.4390   91.9870    4.0052 C.ar    1  UNL1        0.0815
     21 C          58.0583   91.7335    4.5337 C.ar    1  UNL1        0.0105
     22 C          57.8449   90.7204    5.6190 C.ar    1  UNL1        0.0377
     23 C          59.0122   89.9606    6.1758 C.ar    1  UNL1        0.1453
     24 C          60.3929   90.2140    5.6474 C.ar    1  UNL1        0.0377
     25 C          60.6063   91.2272    4.5621 C.ar    1  UNL1        0.0105
     26 N          60.0760   94.3959    3.2697 N.2     1  UNL1       -0.0994
     27 C          59.6525   93.0001    2.9199 C.2     1  UNL1        0.3093
     28 N          59.4424   92.6175    1.4849 N.pl3   1  UNL1       -0.2466
     29 H          60.2160   95.0609    2.5573 H       1  UNL1        0.3633
     30 H          59.5825   93.2825    0.7726 H       1  UNL1        0.2884
     31 H          59.1645   91.7014    1.2553 H       1  UNL1        0.2884
     32 O          62.3471   85.5365    8.9270 O.3     1  UNL1       -0.4534
     33 C          62.7401   84.8060   10.1768 C.ar    1  UNL1        0.1453
     34 C          63.7039   83.6589   10.1034 C.ar    1  UNL1        0.0377
     35 C          64.0968   82.9283   11.3531 C.ar    1  UNL1        0.0105
     36 C          63.5260   83.3449   12.6763 C.ar    1  UNL1        0.0815
     37 C          62.5622   84.4920   12.7496 C.ar    1  UNL1        0.0105
     38 C          62.1693   85.2225   11.4999 C.ar    1  UNL1        0.0377
     39 C          63.9189   82.6144   13.9261 C.2     1  UNL1        0.3093
     40 N          64.4383   83.3770   15.1087 N.2     1  UNL1       -0.0994
     41 N          63.7924   81.1212   13.9932 N.pl3   1  UNL1       -0.2466
     42 H          64.5213   84.3570   15.0647 H       1  UNL1        0.3633
     43 H          63.4516   80.6207   13.2169 H       1  UNL1        0.2884
     44 H          64.0503   80.6417   14.8134 H       1  UNL1        0.2884
@<TRIPOS>BOND
     1    26    27    2
     2    27    28    1
     3    27    20    1
     4    20    21   ar
     5    21    22   ar
     6    22    23   ar
     7    23    19    1
     8    19     1    1
     9     1     2   ar
    10     2     3   ar
    11     3    32    1
    12    32    33    1
    13    33    34   ar
    14    34    35   ar
    15    35    36   ar
    16    36    39    1
    17    39    40    2
    18    39    41    1
    19    36    37   ar
    20    37    38   ar
    21     3     4   ar
    22     4     5   ar
    23     5     7    1
    24     7     8    2
    25     7     9    1
    26    10     9    1
    27    10    11    1
    28    11    12    1
    29    12    13    1
    30    13    14    1
    31    13    15    1
    32    15    16    1
    33     5     6   ar
    34    23    24   ar
    35    24    25   ar
    36    25    20   ar
    37     6     1   ar
    38    38    33   ar
    39    16    10    1
    40    26    29    1
    41    28    30    1
    42    28    31    1
    43    40    42    1
    44    41    43    1
    45    41    44    1
    46    14    17    1
    47    14    18    1
@<TRIPOS>MOLECULE
*****
 44 47 0 0 0
SMALL
GASTEIGER

@<TRIPOS>ATOM
      1 C          64.3277   88.2771   14.4687 C.ar    1  UNL1        0.1486
      2 C          64.9170   89.6447   14.6492 C.ar    1  UNL1        0.0749
      3 C          64.5998   90.7336   13.6675 C.ar    1  UNL1        0.1486
      4 C          63.6932   90.4549   12.5054 C.ar    1  UNL1        0.0441
      5 C          63.1039   89.0874   12.3249 C.ar    1  UNL1        0.0817
      6 C          63.4212   87.9985   13.3066 C.ar    1  UNL1        0.0441
      7 C          62.1974   88.8088   11.1628 C.2     1  UNL1        0.3413
      8 O          62.0638   89.8144   10.0578 O.2     1  UNL1       -0.2449
      9 O          61.4244   87.5246   11.1056 O.3     1  UNL1       -0.4492
     10 C          62.1249   86.2420   10.7677 C.3     1  UNL1        0.1692
     11 C          62.6355   86.0104    9.3764 C.3     1  UNL1        0.0450
     12 C          63.3360   84.7277    9.0384 C.3     1  UNL1        0.0192
     13 C          63.5258   83.6767   10.0918 C.3     1  UNL1        0.0510
     14 N          64.2263   82.3941    9.7538 N.3     1  UNL1       -0.3222
     15 C          63.0151   83.9084   11.4830 C.3     1  UNL1        0.0192
     16 C          62.3147   85.1910   11.8209 C.3     1  UNL1        0.0450
     17 H          64.5038   82.4067    8.7724 H       1  UNL1        0.1188
     18 H          63.5964   81.6090    9.9191 H       1  UNL1        0.1188
     19 O          64.6450   87.1883   15.4504 O.3     1  UNL1       -0.4534
     20 C          63.2050   82.9916   14.6988 C.ar    1  UNL1        0.0815
     21 C          64.5532   83.4223   14.2018 C.ar    1  UNL1        0.0105
     22 C          65.0331   84.8212   14.4523 C.ar    1  UNL1        0.0377
     23 C          64.1650   85.7894   15.1999 C.ar    1  UNL1        0.1453
     24 C          62.8169   85.3587   15.6969 C.ar    1  UNL1        0.0377
     25 C          62.3369   83.9598   15.4463 C.ar    1  UNL1        0.0105
     26 N          63.7156   80.4802   14.2722 N.2     1  UNL1       -0.0994
     27 C          62.7251   81.5927   14.4483 C.2     1  UNL1        0.3093
     28 N          61.2546   81.3064   14.3739 N.pl3   1  UNL1       -0.2466
     29 H          63.4005   79.5621   14.1077 H       1  UNL1        0.3633
     30 H          60.9395   80.3883   14.2095 H       1  UNL1        0.2884
     31 H          60.6044   82.0366   14.4896 H       1  UNL1        0.2884
     32 O          65.1891   92.1012   13.8480 O.3     1  UNL1       -0.4534
     33 C          65.5776   92.9146   12.6491 C.ar    1  UNL1        0.1453
     34 C          66.0747   94.3189   12.8246 C.ar    1  UNL1        0.0377
     35 C          66.4632   95.1323   11.6257 C.ar    1  UNL1        0.0105
     36 C          66.3547   94.5413   10.2512 C.ar    1  UNL1        0.0815
     37 C          65.8576   93.1370   10.0757 C.ar    1  UNL1        0.0105
     38 C          65.4691   92.3237   11.2747 C.ar    1  UNL1        0.0377
     39 C          66.7432   95.3547    9.0523 C.2     1  UNL1        0.3093
     40 N          68.1120   95.2066    8.4570 N.2     1  UNL1       -0.0994
     41 N          65.7629   96.3163    8.4486 N.pl3   1  UNL1       -0.2466
     42 H          68.7554   94.5755    8.8532 H       1  UNL1        0.3633
     43 H          64.8645   96.4136    8.8393 H       1  UNL1        0.2884
     44 H          66.0179   96.8502    7.6617 H       1  UNL1        0.2884
@<TRIPOS>BOND
     1    26    27    2
     2    27    28    1
     3    27    20    1
     4    20    21   ar
     5    21    22   ar
     6    22    23   ar
     7    23    19    1
     8    19     1    1
     9     1     2   ar
    10     2     3   ar
    11     3    32    1
    12    32    33    1
    13    33    34   ar
    14    34    35   ar
    15    35    36   ar
    16    36    39    1
    17    39    40    2
    18    39    41    1
    19    36    37   ar
    20    37    38   ar
    21     3     4   ar
    22     4     5   ar
    23     5     7    1
    24     7     8    2
    25     7     9    1
    26    10     9    1
    27    10    11    1
    28    11    12    1
    29    12    13    1
    30    13    14    1
    31    13    15    1
    32    15    16    1
    33     5     6   ar
    34    23    24   ar
    35    24    25   ar
    36    25    20   ar
    37     6     1   ar
    38    38    33   ar
    39    16    10    1
    40    26    29    1
    41    28    30    1
    42    28    31    1
    43    40    42    1
    44    41    43    1
    45    41    44    1
    46    14    17    1
    47    14    18    1
@<TRIPOS>MOLECULE
*****
 44 47 0 0 0
SMALL
GASTEIGER

@<TRIPOS>ATOM
      1 C          62.2592   88.4732   12.0224 C.ar    1  UNL1        0.1486
      2 C          62.8852   87.2231   12.5661 C.ar    1  UNL1        0.0749
      3 C          63.9557   87.3144   13.6128 C.ar    1  UNL1        0.1486
      4 C          64.4002   88.6558   14.1159 C.ar    1  UNL1        0.0441
      5 C          63.7743   89.9058   13.5723 C.ar    1  UNL1        0.0817
      6 C          62.7037   89.8146   12.5256 C.ar    1  UNL1        0.0441
      7 C          64.2188   91.2472   14.0754 C.2     1  UNL1        0.3413
      8 O          64.4924   91.4471   15.5367 O.2     1  UNL1       -0.2449
      9 O          64.3898   92.3886   13.1174 O.3     1  UNL1       -0.4492
     10 C          65.6088   92.4604   12.2462 C.3     1  UNL1        0.1692
     11 C          66.9301   91.9740   12.7636 C.3     1  UNL1        0.0450
     12 C          68.1490   92.0458   11.8924 C.3     1  UNL1        0.0192
     13 C          68.0467   92.6041   10.5039 C.3     1  UNL1        0.0510
     14 N          69.2657   92.6759    9.6327 N.3     1  UNL1       -0.3222
     15 C          66.7255   93.0905    9.9866 C.3     1  UNL1        0.0192
     16 C          65.5065   93.0187   10.8578 C.3     1  UNL1        0.0450
     17 H          70.0689   92.3055   10.1407 H       1  UNL1        0.1188
     18 H          69.4438   93.6470    9.3765 H       1  UNL1        0.1188
     19 O          61.1887   88.3819   10.9757 O.3     1  UNL1       -0.4534
     20 C          61.6574   85.5378    7.5201 C.ar    1  UNL1        0.0815
     21 C          62.8330   85.8531    8.3967 C.ar    1  UNL1        0.0105
     22 C          62.6767   86.8011    9.5486 C.ar    1  UNL1        0.0377
     23 C          61.3449   87.4338    9.8239 C.ar    1  UNL1        0.1453
     24 C          60.1693   87.1185    8.9472 C.ar    1  UNL1        0.0377
     25 C          60.3256   86.1705    7.7954 C.ar    1  UNL1        0.0105
     26 N          60.6351   83.7995    5.8821 N.2     1  UNL1       -0.0994
     27 C          61.8136   84.5898    6.3682 C.2     1  UNL1        0.3093
     28 N          63.1485   84.4320    5.7024 N.pl3   1  UNL1       -0.2466
     29 H          60.7376   83.1772    5.1261 H       1  UNL1        0.3633
     30 H          63.2510   83.8098    4.9464 H       1  UNL1        0.2884
     31 H          63.9220   84.9507    6.0215 H       1  UNL1        0.2884
     32 O          64.5817   86.0644   14.1565 O.3     1  UNL1       -0.4534
     33 C          63.8748   84.7489   14.0150 C.ar    1  UNL1        0.1453
     34 C          62.8489   84.3359   15.0284 C.ar    1  UNL1        0.0377
     35 C          62.1421   83.0205   14.8869 C.ar    1  UNL1        0.0105
     36 C          62.4612   82.1180   13.7319 C.ar    1  UNL1        0.0815
     37 C          63.4870   82.5311   12.7185 C.ar    1  UNL1        0.0105
     38 C          64.1939   83.8465   12.8601 C.ar    1  UNL1        0.0377
     39 C          61.7544   80.8026   13.5904 C.2     1  UNL1        0.3093
     40 N          62.3968   79.6846   12.8241 N.2     1  UNL1       -0.0994
     41 N          60.4050   80.6052   14.2152 N.pl3   1  UNL1       -0.2466
     42 H          63.2824   79.8142   12.4140 H       1  UNL1        0.3633
     43 H          59.9834   81.3390   14.7182 H       1  UNL1        0.2884
     44 H          59.9411   79.7418   14.1224 H       1  UNL1        0.2884
@<TRIPOS>BOND
     1    26    27    2
     2    27    28    1
     3    27    20    1
     4    20    21   ar
     5    21    22   ar
     6    22    23   ar
     7    23    19    1
     8    19     1    1
     9     1     2   ar
    10     2     3   ar
    11     3    32    1
    12    32    33    1
    13    33    34   ar
    14    34    35   ar
    15    35    36   ar
    16    36    39    1
    17    39    40    2
    18    39    41    1
    19    36    37   ar
    20    37    38   ar
    21     3     4   ar
    22     4     5   ar
    23     5     7    1
    24     7     8    2
    25     7     9    1
    26    10     9    1
    27    10    11    1
    28    11    12    1
    29    12    13    1
    30    13    14    1
    31    13    15    1
    32    15    16    1
    33     5     6   ar
    34    23    24   ar
    35    24    25   ar
    36    25    20   ar
    37     6     1   ar
    38    38    33   ar
    39    16    10    1
    40    26    29    1
    41    28    30    1
    42    28    31    1
    43    40    42    1
    44    41    43    1
    45    41    44    1
    46    14    17    1
    47    14    18    1
