@<TRIPOS>MOLECULE
*****
 37 41 0 0 0
SMALL
GASTEIGER

@<TRIPOS>ATOM
      1 C          63.5938   89.2938   13.0828 C.ar    1  UNL1        0.0447
      2 C          64.3563   89.5323   14.3523 C.ar    1  UNL1        0.0156
      3 C          64.7953   88.3703   15.1930 C.ar    1  UNL1        0.0159
      4 C          64.4718   86.9698   14.7642 C.ar    1  UNL1        0.0507
      5 C          63.7093   86.7313   13.4948 C.ar    1  UNL1        0.0192
      6 C          63.2702   87.8933   12.6541 C.ar    1  UNL1        0.0157
      7 C          63.5371   85.2505   13.3288 C.2     1  UNL1        0.0578
      8 C          62.8324   84.5665   12.1949 C.2     1  UNL1        0.0385
      9 C          64.1932   84.5738   14.4956 C.2     1  UNL1        0.2496
     10 O          64.2599   83.0942   14.7335 O.2     1  UNL1       -0.2698
     11 N          64.7709   85.6363   15.3828 N.am    1  UNL1       -0.2804
     12 H          65.2605   85.4851   16.2235 H       1  UNL1        0.1552
     13 C          62.7391   83.0697   12.1636 C.ar    1  UNL1        0.0075
     14 C          63.2374   82.3120   10.9688 C.ar    1  UNL1        0.0299
     15 C          63.1441   80.8152   10.9376 C.ar    1  UNL1        0.1424
     16 F          63.6425   80.0575    9.7427 F       1  UNL1       -0.2041
     17 C          62.5524   80.0761   12.1011 C.ar    1  UNL1        0.0592
     18 C          62.0541   80.8339   13.2958 C.ar    1  UNL1        0.1424
     19 F          61.4625   80.0948   14.4593 F       1  UNL1       -0.2041
     20 C          62.1474   82.3306   13.3271 C.ar    1  UNL1        0.0299
     21 C          62.2211   85.3792   11.0923 C.ar    1  UNL1        0.1403
     22 N          61.0477   86.3042   11.2251 N.ar    1  UNL1       -0.2313
     23 C          60.7773   86.9063    9.8781 C.ar    1  UNL1        0.0779
     24 C          59.6914   87.8887    9.5535 C.3     1  UNL1        0.0537
     25 C          61.7835   86.3533    8.9128 C.ar    1  UNL1        0.0884
     26 N          62.6757   85.4096    9.6632 N.ar    1  UNL1       -0.3365
     27 H          63.4278   84.8996    9.2842 H       1  UNL1        0.1674
     28 N          63.1547   90.4559   12.2420 N.pl3   1  UNL1       -0.3339
     29 H          62.2233   90.5122   11.9280 H       1  UNL1        0.1468
     30 N          66.0947   93.6846   11.1550 N.3     1  UNL1       -0.2726
     31 C          65.1958   93.1041   10.1039 C.3     1  UNL1        0.0738
     32 C          64.2157   92.0278   10.4662 C.3     1  UNL1        0.0368
     33 C          64.1347   91.5321   11.8796 C.3     1  UNL1        0.0718
     34 C          65.0337   92.1128   12.9308 C.3     1  UNL1        0.0368
     35 C          66.0137   93.1890   12.5684 C.3     1  UNL1        0.0738
     36 C          67.6121   94.8463    9.3948 C.3     1  UNL1        0.0188
     37 C          67.0747   94.7609   10.7926 C.3     1  UNL1        0.0721
@<TRIPOS>BOND
     1    36    37    1
     2    37    30    1
     3    30    31    1
     4    31    32    1
     5    32    33    1
     6    33    28    1
     7    28     1    1
     8     1     2   ar
     9     2     3   ar
    10     3     4   ar
    11     4     5   ar
    12     5     6   ar
    13     5     7    1
    14     7     8    2
    15     8    13    1
    16    13    14   ar
    17    14    15   ar
    18    15    16    1
    19    15    17   ar
    20    17    18   ar
    21    18    19    1
    22    18    20   ar
    23     8    21    1
    24    21    22   ar
    25    22    23   ar
    26    23    24    1
    27    23    25   ar
    28    25    26   ar
    29     7     9    1
    30     9    10    2
    31     9    11   am
    32    33    34    1
    33    34    35    1
    34    35    30    1
    35     6     1   ar
    36    20    13   ar
    37    26    21   ar
    38    11     4    1
    39    28    29    1
    40    26    27    1
    41    11    12    1
@<TRIPOS>MOLECULE
*****
 37 41 0 0 0
SMALL
GASTEIGER

@<TRIPOS>ATOM
      1 C          62.9719   90.0389   12.9268 C.ar    1  UNL1        0.0447
      2 C          62.5983   90.6923   11.6294 C.ar    1  UNL1        0.0156
      3 C          62.2988   89.8505   10.4246 C.ar    1  UNL1        0.0159
      4 C          62.3730   88.3552   10.5172 C.ar    1  UNL1        0.0507
      5 C          62.7466   87.7017   11.8147 C.ar    1  UNL1        0.0192
      6 C          63.0460   88.5436   13.0194 C.ar    1  UNL1        0.0157
      7 C          62.7383   86.2165   11.6049 C.2     1  UNL1        0.0578
      8 C          63.0534   85.1781   12.6404 C.2     1  UNL1        0.0385
      9 C          62.3595   85.9520   10.1778 C.2     1  UNL1        0.2496
     10 O          62.2294   84.6026    9.5357 O.2     1  UNL1       -0.2698
     11 N          62.1338   87.2738    9.5055 N.am    1  UNL1       -0.2804
     12 H          61.8742   87.4080    8.5654 H       1  UNL1        0.1552
     13 C          63.0038   83.7224   12.2821 C.ar    1  UNL1        0.0075
     14 C          63.7673   83.2159   11.0945 C.ar    1  UNL1        0.0299
     15 C          63.7178   81.7601   10.7362 C.ar    1  UNL1        0.1424
     16 F          64.4814   81.2537    9.5485 F       1  UNL1       -0.2041
     17 C          62.9047   80.8109   11.5655 C.ar    1  UNL1        0.0592
     18 C          62.1411   81.3174   12.7532 C.ar    1  UNL1        0.1424
     19 F          61.3280   80.3681   13.5825 F       1  UNL1       -0.2041
     20 C          62.1907   82.7731   13.1114 C.ar    1  UNL1        0.0299
     21 C          63.4181   85.5953   14.0343 C.ar    1  UNL1        0.1403
     22 N          62.4908   85.6396   15.2126 N.ar    1  UNL1       -0.2313
     23 C          63.2738   86.1132   16.4011 C.ar    1  UNL1        0.0779
     24 C          62.7394   86.3047   17.7895 C.3     1  UNL1        0.0537
     25 C          64.6850   86.3616   15.9574 C.ar    1  UNL1        0.0884
     26 N          64.7741   86.0416   14.4947 N.ar    1  UNL1       -0.3365
     27 H          65.5810   86.1120   13.9351 H       1  UNL1        0.1674
     28 N          63.2714   90.8808   14.1317 N.pl3   1  UNL1       -0.3339
     29 H          62.5578   91.0870   14.7778 H       1  UNL1        0.1468
     30 N          67.4316   92.4635   14.7929 N.3     1  UNL1       -0.2726
     31 C          66.4571   92.4166   15.9323 C.3     1  UNL1        0.0738
     32 C          65.0703   91.8890   15.7119 C.3     1  UNL1        0.0368
     33 C          64.6581   91.4083   14.3521 C.3     1  UNL1        0.0718
     34 C          65.6326   91.4552   13.2127 C.3     1  UNL1        0.0368
     35 C          67.0194   91.9828   13.4331 C.3     1  UNL1        0.0738
     36 C          69.0766   93.9896   16.1026 C.3     1  UNL1        0.0188
     37 C          68.8183   92.9911   15.0133 C.3     1  UNL1        0.0721
@<TRIPOS>BOND
     1    36    37    1
     2    37    30    1
     3    30    31    1
     4    31    32    1
     5    32    33    1
     6    33    28    1
     7    28     1    1
     8     1     2   ar
     9     2     3   ar
    10     3     4   ar
    11     4     5   ar
    12     5     6   ar
    13     5     7    1
    14     7     8    2
    15     8    13    1
    16    13    14   ar
    17    14    15   ar
    18    15    16    1
    19    15    17   ar
    20    17    18   ar
    21    18    19    1
    22    18    20   ar
    23     8    21    1
    24    21    22   ar
    25    22    23   ar
    26    23    24    1
    27    23    25   ar
    28    25    26   ar
    29     7     9    1
    30     9    10    2
    31     9    11   am
    32    33    34    1
    33    34    35    1
    34    35    30    1
    35     6     1   ar
    36    20    13   ar
    37    26    21   ar
    38    11     4    1
    39    28    29    1
    40    26    27    1
    41    11    12    1
@<TRIPOS>MOLECULE
*****
 37 41 0 0 0
SMALL
GASTEIGER

@<TRIPOS>ATOM
      1 C          62.7357   89.5568   11.9989 C.ar    1  UNL1        0.0447
      2 C          62.4637   89.7059   10.5314 C.ar    1  UNL1        0.0156
      3 C          62.2781   88.4881    9.6756 C.ar    1  UNL1        0.0159
      4 C          62.3645   87.1212   10.2872 C.ar    1  UNL1        0.0507
      5 C          62.6366   86.9721   11.7548 C.ar    1  UNL1        0.0192
      6 C          62.8222   88.1899   12.6106 C.ar    1  UNL1        0.0157
      7 C          62.6662   85.5068   12.0741 C.2     1  UNL1        0.0578
      8 C          62.9073   84.9039   13.4263 C.2     1  UNL1        0.0385
      9 C          62.4125   84.7503   10.8040 C.2     1  UNL1        0.2496
     10 O          62.3552   83.2580   10.6630 O.2     1  UNL1       -0.2698
     11 N          62.2260   85.7480    9.6996 N.am    1  UNL1       -0.2804
     12 H          62.0445   85.5385    8.7549 H       1  UNL1        0.1552
     13 C          62.9079   83.4133   13.5935 C.ar    1  UNL1        0.0075
     14 C          61.6279   82.6919   13.8956 C.ar    1  UNL1        0.0299
     15 C          61.6285   81.2013   14.0628 C.ar    1  UNL1        0.1424
     16 F          60.3484   80.4800   14.3648 F       1  UNL1       -0.2041
     17 C          62.9091   80.4319   13.9280 C.ar    1  UNL1        0.0592
     18 C          64.1891   81.1533   13.6260 C.ar    1  UNL1        0.1424
     19 F          65.4697   80.3839   13.4912 F       1  UNL1       -0.2041
     20 C          64.1885   82.6439   13.4588 C.ar    1  UNL1        0.0299
     21 C          63.1478   85.7916   14.6113 C.ar    1  UNL1        0.1403
     22 N          62.5431   85.6263   15.9740 N.ar    1  UNL1       -0.2313
     23 C          63.0569   86.7330   16.8465 C.ar    1  UNL1        0.0779
     24 C          62.7094   86.9519   18.2892 C.3     1  UNL1        0.0537
     25 C          63.9792   87.5823   16.0230 C.ar    1  UNL1        0.0884
     26 N          64.0353   87.0005   14.6416 N.ar    1  UNL1       -0.3365
     27 H          64.5622   87.3506   13.8873 H       1  UNL1        0.1674
     28 N          62.9214   90.7746   12.8549 N.pl3   1  UNL1       -0.3339
     29 H          62.1371   91.2825   13.1650 H       1  UNL1        0.1468
     30 N          67.0630   92.1062   14.0053 N.3     1  UNL1       -0.2726
     31 C          66.4722   92.5400   12.6966 C.3     1  UNL1        0.0738
     32 C          65.0916   92.0961   12.3131 C.3     1  UNL1        0.0368
     33 C          64.3019   91.2185   13.2383 C.3     1  UNL1        0.0718
     34 C          64.8928   90.7847   14.5471 C.3     1  UNL1        0.0368
     35 C          66.2733   91.2285   14.9306 C.3     1  UNL1        0.0738
     36 C          68.7409   92.9335   15.8082 C.3     1  UNL1        0.0188
     37 C          68.4435   92.5501   14.3888 C.3     1  UNL1        0.0721
@<TRIPOS>BOND
     1    36    37    1
     2    37    30    1
     3    30    31    1
     4    31    32    1
     5    32    33    1
     6    33    28    1
     7    28     1    1
     8     1     2   ar
     9     2     3   ar
    10     3     4   ar
    11     4     5   ar
    12     5     6   ar
    13     5     7    1
    14     7     8    2
    15     8    13    1
    16    13    14   ar
    17    14    15   ar
    18    15    16    1
    19    15    17   ar
    20    17    18   ar
    21    18    19    1
    22    18    20   ar
    23     8    21    1
    24    21    22   ar
    25    22    23   ar
    26    23    24    1
    27    23    25   ar
    28    25    26   ar
    29     7     9    1
    30     9    10    2
    31     9    11   am
    32    33    34    1
    33    34    35    1
    34    35    30    1
    35     6     1   ar
    36    20    13   ar
    37    26    21   ar
    38    11     4    1
    39    28    29    1
    40    26    27    1
    41    11    12    1
@<TRIPOS>MOLECULE
*****
 37 41 0 0 0
SMALL
GASTEIGER

@<TRIPOS>ATOM
      1 C          64.1972   87.9786   14.8190 C.ar    1  UNL1        0.0447
      2 C          64.6208   86.7577   15.5805 C.ar    1  UNL1        0.0156
      3 C          64.4228   85.3957   14.9842 C.ar    1  UNL1        0.0159
      4 C          63.8011   85.2546   13.6264 C.ar    1  UNL1        0.0507
      5 C          63.3774   86.4755   12.8649 C.ar    1  UNL1        0.0192
      6 C          63.5755   87.8375   13.4613 C.ar    1  UNL1        0.0157
      7 C          62.7964   86.0274   11.5567 C.2     1  UNL1        0.0578
      8 C          62.2473   86.9204   10.4839 C.2     1  UNL1        0.0385
      9 C          62.8609   84.5295   11.5096 C.2     1  UNL1        0.2496
     10 O          62.3876   83.6616   10.3813 O.2     1  UNL1       -0.2698
     11 N          63.4818   84.0518   12.7887 N.am    1  UNL1       -0.2804
     12 H          63.6503   83.1137   13.0352 H       1  UNL1        0.1552
     13 C          61.6962   86.3254    9.2220 C.ar    1  UNL1        0.0075
     14 C          62.5981   85.5662    8.2946 C.ar    1  UNL1        0.0299
     15 C          62.0471   84.9712    7.0327 C.ar    1  UNL1        0.1424
     16 F          62.9492   84.2120    6.1053 F       1  UNL1       -0.2041
     17 C          60.5941   85.1354    6.6982 C.ar    1  UNL1        0.0592
     18 C          59.6922   85.8946    7.6256 C.ar    1  UNL1        0.1424
     19 F          58.2392   86.0588    7.2911 F       1  UNL1       -0.2041
     20 C          60.2432   86.4896    8.8875 C.ar    1  UNL1        0.0299
     21 C          62.2491   88.4084   10.6728 C.ar    1  UNL1        0.1403
     22 N          63.1454   89.3853    9.9711 N.ar    1  UNL1       -0.2313
     23 C          62.8052   90.7615   10.4613 C.ar    1  UNL1        0.0779
     24 C          63.4571   92.0395   10.0237 C.3     1  UNL1        0.0537
     25 C          61.6986   90.6351   11.4662 C.ar    1  UNL1        0.0884
     26 N          61.3550   89.1810   11.5968 N.ar    1  UNL1       -0.3365
     27 H          60.6639   88.8004   12.1857 H       1  UNL1        0.1674
     28 N          64.3953   89.3407   15.4154 N.pl3   1  UNL1       -0.3339
     29 H          64.1133   89.5182   16.3418 H       1  UNL1        0.1468
     30 N          66.2783   92.6154   12.9699 N.3     1  UNL1       -0.2726
     31 C          67.1080   91.8390   13.9491 C.3     1  UNL1        0.0738
     32 C          66.4803   90.7474   14.7643 C.3     1  UNL1        0.0368
     33 C          65.0230   90.4322   14.6002 C.3     1  UNL1        0.0718
     34 C          64.1933   91.2087   13.6209 C.3     1  UNL1        0.0368
     35 C          64.8210   92.3002   12.8058 C.3     1  UNL1        0.0738
     36 C          66.0783   94.4777   11.1693 C.3     1  UNL1        0.0188
     37 C          66.9060   93.7069   12.1547 C.3     1  UNL1        0.0721
@<TRIPOS>BOND
     1    36    37    1
     2    37    30    1
     3    30    31    1
     4    31    32    1
     5    32    33    1
     6    33    28    1
     7    28     1    1
     8     1     2   ar
     9     2     3   ar
    10     3     4   ar
    11     4     5   ar
    12     5     6   ar
    13     5     7    1
    14     7     8    2
    15     8    13    1
    16    13    14   ar
    17    14    15   ar
    18    15    16    1
    19    15    17   ar
    20    17    18   ar
    21    18    19    1
    22    18    20   ar
    23     8    21    1
    24    21    22   ar
    25    22    23   ar
    26    23    24    1
    27    23    25   ar
    28    25    26   ar
    29     7     9    1
    30     9    10    2
    31     9    11   am
    32    33    34    1
    33    34    35    1
    34    35    30    1
    35     6     1   ar
    36    20    13   ar
    37    26    21   ar
    38    11     4    1
    39    28    29    1
    40    26    27    1
    41    11    12    1
@<TRIPOS>MOLECULE
*****
 37 41 0 0 0
SMALL
GASTEIGER

@<TRIPOS>ATOM
      1 C          63.6128   89.1667   13.2059 C.ar    1  UNL1        0.0447
      2 C          64.4720   89.4115   14.4108 C.ar    1  UNL1        0.0156
      3 C          64.9648   88.2544   15.2282 C.ar    1  UNL1        0.0159
      4 C          64.5984   86.8524   14.8406 C.ar    1  UNL1        0.0507
      5 C          63.7393   86.6075   13.6357 C.ar    1  UNL1        0.0192
      6 C          63.2465   87.7647   12.8183 C.ar    1  UNL1        0.0157
      7 C          63.5432   85.1267   13.4994 C.2     1  UNL1        0.0578
      8 C          62.7487   84.4373   12.4301 C.2     1  UNL1        0.0385
      9 C          64.2812   84.4563   14.6201 C.2     1  UNL1        0.2496
     10 O          64.3542   82.9787   14.8682 O.2     1  UNL1       -0.2698
     11 N          64.9334   85.5228   15.4491 N.am    1  UNL1       -0.2804
     12 H          65.4845   85.3760   16.2515 H       1  UNL1        0.1552
     13 C          62.6414   82.9411   12.4223 C.ar    1  UNL1        0.0075
     14 C          62.0237   82.2274   13.5880 C.ar    1  UNL1        0.0299
     15 C          61.9165   80.7312   13.5802 C.ar    1  UNL1        0.1424
     16 F          61.2987   80.0176   14.7461 F       1  UNL1       -0.2041
     17 C          62.4270   79.9488   12.4067 C.ar    1  UNL1        0.0592
     18 C          63.0447   80.6626   11.2409 C.ar    1  UNL1        0.1424
     19 F          63.5552   79.8802   10.0674 F       1  UNL1       -0.2041
     20 C          63.1519   82.1587   11.2487 C.ar    1  UNL1        0.0299
     21 C          62.0614   85.2439   11.3686 C.ar    1  UNL1        0.1403
     22 N          62.2960   85.1387    9.8907 N.ar    1  UNL1       -0.2313
     23 C          61.3983   86.1272    9.2074 C.ar    1  UNL1        0.0779
     24 C          61.3062   86.3589    7.7283 C.3     1  UNL1        0.0537
     25 C          60.6088   86.8434   10.2629 C.ar    1  UNL1        0.0884
     26 N          61.0186   86.2975   11.5985 N.ar    1  UNL1       -0.3365
     27 H          60.6653   86.5809   12.4726 H       1  UNL1        0.1674
     28 N          63.1200   90.3239   12.3885 N.pl3   1  UNL1       -0.3339
     29 H          63.4421   91.2343   12.5798 H       1  UNL1        0.1468
     30 N          60.1693   89.6339    9.0618 N.3     1  UNL1       -0.2726
     31 C          59.6809   89.8778   10.4589 C.3     1  UNL1        0.0738
     32 C          60.6645   90.1079   11.5678 C.3     1  UNL1        0.0368
     33 C          62.1364   90.0939   11.2796 C.3     1  UNL1        0.0718
     34 C          62.6248   89.8499    9.8824 C.3     1  UNL1        0.0368
     35 C          61.6413   89.6199    8.7736 C.3     1  UNL1        0.0738
     36 C          59.5795   89.6793    6.5319 C.3     1  UNL1        0.0188
     37 C          59.1857   89.4039    7.9529 C.3     1  UNL1        0.0721
@<TRIPOS>BOND
     1    36    37    1
     2    37    30    1
     3    30    31    1
     4    31    32    1
     5    32    33    1
     6    33    28    1
     7    28     1    1
     8     1     2   ar
     9     2     3   ar
    10     3     4   ar
    11     4     5   ar
    12     5     6   ar
    13     5     7    1
    14     7     8    2
    15     8    13    1
    16    13    14   ar
    17    14    15   ar
    18    15    16    1
    19    15    17   ar
    20    17    18   ar
    21    18    19    1
    22    18    20   ar
    23     8    21    1
    24    21    22   ar
    25    22    23   ar
    26    23    24    1
    27    23    25   ar
    28    25    26   ar
    29     7     9    1
    30     9    10    2
    31     9    11   am
    32    33    34    1
    33    34    35    1
    34    35    30    1
    35     6     1   ar
    36    20    13   ar
    37    26    21   ar
    38    11     4    1
    39    28    29    1
    40    26    27    1
    41    11    12    1
@<TRIPOS>MOLECULE
*****
 37 41 0 0 0
SMALL
GASTEIGER

@<TRIPOS>ATOM
      1 C          64.3933   87.8367   14.3859 C.ar    1  UNL1        0.0447
      2 C          64.5352   89.2272   14.9301 C.ar    1  UNL1        0.0156
      3 C          63.8334   90.3705   14.2589 C.ar    1  UNL1        0.0159
      4 C          62.9898   90.1231   13.0436 C.ar    1  UNL1        0.0507
      5 C          62.8479   88.7326   12.4994 C.ar    1  UNL1        0.0192
      6 C          63.5496   87.5894   13.1705 C.ar    1  UNL1        0.0157
      7 C          61.9554   88.7949   11.2954 C.2     1  UNL1        0.0578
      8 C          61.5447   87.6322   10.4413 C.2     1  UNL1        0.0385
      9 C          61.5457   90.2239   11.0954 C.2     1  UNL1        0.2496
     10 O          60.6534   90.7412   10.0062 O.2     1  UNL1       -0.2698
     11 N          62.1850   91.0449   12.1759 N.am    1  UNL1       -0.2804
     12 H          62.0926   92.0178   12.2947 H       1  UNL1        0.1552
     13 C          60.6425   87.8490    9.2628 C.ar    1  UNL1        0.0075
     14 C          60.8272   89.0537    8.3884 C.ar    1  UNL1        0.0299
     15 C          59.9249   89.2705    7.2099 C.ar    1  UNL1        0.1424
     16 F          60.1097   90.4754    6.3356 F       1  UNL1       -0.2041
     17 C          58.8379   88.2827    6.9057 C.ar    1  UNL1        0.0592
     18 C          58.6532   87.0779    7.7801 C.ar    1  UNL1        0.1424
     19 F          57.5662   86.0900    7.4759 F       1  UNL1       -0.2041
     20 C          59.5555   86.8611    8.9586 C.ar    1  UNL1        0.0299
     21 C          62.0363   86.2527   10.7656 C.ar    1  UNL1        0.1403
     22 N          62.9478   85.4186    9.9149 N.ar    1  UNL1       -0.2313
     23 C          63.1775   84.1154   10.6212 C.ar    1  UNL1        0.0779
     24 C          64.0274   82.9826   10.1270 C.3     1  UNL1        0.0537
     25 C          62.4079   84.1440   11.9085 C.ar    1  UNL1        0.0884
     26 N          61.7027   85.4648   11.9977 N.ar    1  UNL1       -0.3365
     27 H          61.1227   85.7624   12.7354 H       1  UNL1        0.1674
     28 N          65.0951   86.6933   15.0570 N.pl3   1  UNL1       -0.3339
     29 H          65.9070   86.8581   15.5890 H       1  UNL1        0.1468
     30 N          63.4895   82.5104   14.6391 N.3     1  UNL1       -0.2726
     31 C          62.7690   83.5081   15.4967 C.3     1  UNL1        0.0738
     32 C          63.3042   84.9024   15.6360 C.3     1  UNL1        0.0368
     33 C          64.5599   85.2991   14.9177 C.3     1  UNL1        0.0718
     34 C          65.2804   84.3013   14.0601 C.3     1  UNL1        0.0368
     35 C          64.7452   82.9070   13.9208 C.3     1  UNL1        0.0738
     36 C          61.5829   80.8921   13.9347 C.3     1  UNL1        0.0188
     37 C          62.9543   81.1161   14.4998 C.3     1  UNL1        0.0721
@<TRIPOS>BOND
     1    36    37    1
     2    37    30    1
     3    30    31    1
     4    31    32    1
     5    32    33    1
     6    33    28    1
     7    28     1    1
     8     1     2   ar
     9     2     3   ar
    10     3     4   ar
    11     4     5   ar
    12     5     6   ar
    13     5     7    1
    14     7     8    2
    15     8    13    1
    16    13    14   ar
    17    14    15   ar
    18    15    16    1
    19    15    17   ar
    20    17    18   ar
    21    18    19    1
    22    18    20   ar
    23     8    21    1
    24    21    22   ar
    25    22    23   ar
    26    23    24    1
    27    23    25   ar
    28    25    26   ar
    29     7     9    1
    30     9    10    2
    31     9    11   am
    32    33    34    1
    33    34    35    1
    34    35    30    1
    35     6     1   ar
    36    20    13   ar
    37    26    21   ar
    38    11     4    1
    39    28    29    1
    40    26    27    1
    41    11    12    1
@<TRIPOS>MOLECULE
*****
 37 41 0 0 0
SMALL
GASTEIGER

@<TRIPOS>ATOM
      1 C          59.1948   94.3919   -5.7851 C.ar    1  UNL1        0.0447
      2 C          60.2593   94.5595   -6.8284 C.ar    1  UNL1        0.0156
      3 C          61.7065   94.5237   -6.4357 C.ar    1  UNL1        0.0159
      4 C          62.0892   94.3203   -4.9997 C.ar    1  UNL1        0.0507
      5 C          61.0246   94.1527   -3.9563 C.ar    1  UNL1        0.0192
      6 C          59.5774   94.1885   -4.3490 C.ar    1  UNL1        0.0157
      7 C          61.7005   93.9695   -2.6298 C.2     1  UNL1        0.0578
      8 C          61.0144   93.7674   -1.3113 C.2     1  UNL1        0.0385
      9 C          63.1827   94.0240   -2.8533 C.2     1  UNL1        0.2496
     10 O          64.2392   93.8859   -1.7974 O.2     1  UNL1       -0.2698
     11 N          63.4230   94.2407   -4.3180 N.am    1  UNL1       -0.2804
     12 H          64.3018   94.3174   -4.7551 H       1  UNL1        0.1552
     13 C          61.8265   93.5975   -0.0616 C.ar    1  UNL1        0.0075
     14 C          62.5632   94.7680    0.5191 C.ar    1  UNL1        0.0299
     15 C          63.3753   94.5980    1.7688 C.ar    1  UNL1        0.1424
     16 F          64.1120   95.7687    2.3494 F       1  UNL1       -0.2041
     17 C          63.4506   93.2576    2.4378 C.ar    1  UNL1        0.0592
     18 C          62.7139   92.0872    1.8571 C.ar    1  UNL1        0.1424
     19 F          62.7892   90.7467    2.5261 F       1  UNL1       -0.2041
     20 C          61.9018   92.2571    0.6074 C.ar    1  UNL1        0.0299
     21 C          59.5164   93.7353   -1.2423 C.ar    1  UNL1        0.1403
     22 N          58.6048   94.9247   -1.3099 N.ar    1  UNL1       -0.2313
     23 C          57.1919   94.4325   -1.2030 C.ar    1  UNL1        0.0779
     24 C          55.9575   95.2843   -1.2257 C.3     1  UNL1        0.0537
     25 C          57.2302   92.9388   -1.0695 C.ar    1  UNL1        0.0884
     26 N          58.6667   92.5081   -1.0938 N.ar    1  UNL1       -0.3365
     27 H          58.9945   91.5823   -1.0244 H       1  UNL1        0.1674
     28 N          57.7475   94.4277   -6.1778 N.pl3   1  UNL1       -0.3339
     29 H          57.3584   95.2522   -6.5492 H       1  UNL1        0.1468
     30 N          55.1838   90.7661   -5.6577 N.3     1  UNL1       -0.2726
     31 C          55.8255   91.4081   -4.4636 C.3     1  UNL1        0.0738
     32 C          56.6801   92.6287   -4.6369 C.3     1  UNL1        0.0368
     33 C          56.8929   93.2072   -6.0044 C.3     1  UNL1        0.0718
     34 C          56.2511   92.5651   -7.1986 C.3     1  UNL1        0.0368
     35 C          55.3966   91.3446   -7.0252 C.3     1  UNL1        0.0738
     36 C          53.0344   89.4242   -6.2320 C.3     1  UNL1        0.0188
     37 C          54.3292   89.5456   -5.4844 C.3     1  UNL1        0.0721
@<TRIPOS>BOND
     1    36    37    1
     2    37    30    1
     3    30    31    1
     4    31    32    1
     5    32    33    1
     6    33    28    1
     7    28     1    1
     8     1     2   ar
     9     2     3   ar
    10     3     4   ar
    11     4     5   ar
    12     5     6   ar
    13     5     7    1
    14     7     8    2
    15     8    13    1
    16    13    14   ar
    17    14    15   ar
    18    15    16    1
    19    15    17   ar
    20    17    18   ar
    21    18    19    1
    22    18    20   ar
    23     8    21    1
    24    21    22   ar
    25    22    23   ar
    26    23    24    1
    27    23    25   ar
    28    25    26   ar
    29     7     9    1
    30     9    10    2
    31     9    11   am
    32    33    34    1
    33    34    35    1
    34    35    30    1
    35     6     1   ar
    36    20    13   ar
    37    26    21   ar
    38    11     4    1
    39    28    29    1
    40    26    27    1
    41    11    12    1
