@<TRIPOS>MOLECULE
*****
 37 40 0 0 0
SMALL
GASTEIGER

@<TRIPOS>ATOM
      1 C          62.7799   86.5806   11.8663 C.ar    1  UNL1        0.0768
      2 N          62.8350   88.0671   11.6728 N.ar    1  UNL1       -0.2480
      3 C          63.5082   88.9323   12.6967 C.ar    1  UNL1        0.0812
      4 C          63.5633   90.4187   12.5031 C.ar    1  UNL1        0.0214
      5 C          64.2364   91.2839   13.5270 C.ar    1  UNL1        0.0312
      6 C          64.8544   90.6626   14.7444 C.ar    1  UNL1        0.1402
      7 F          65.5275   91.5279   15.7684 F       1  UNL1       -0.2042
      8 C          64.7993   89.1762   14.9380 C.ar    1  UNL1        0.0313
      9 C          64.1262   88.3110   13.9141 C.ar    1  UNL1        0.0243
     10 C          64.0710   86.8246   14.1076 C.ar    1  UNL1        0.0558
     11 C          63.3979   85.9594   13.0838 C.ar    1  UNL1        0.0196
     12 C          63.3428   84.4729   13.2773 C.ar    1  UNL1        0.0013
     13 C          64.4109   83.5998   12.6883 C.ar    1  UNL1        0.0000
     14 C          64.3558   82.1134   12.8818 C.ar    1  UNL1        0.0000
     15 C          63.2326   81.5001   13.6642 C.ar    1  UNL1        0.0000
     16 C          62.1645   82.3732   14.2532 C.ar    1  UNL1        0.0000
     17 C          62.2196   83.8596   14.0597 C.ar    1  UNL1        0.0000
     18 C          64.6890   86.2033   15.3251 C.2     1  UNL1        0.2428
     19 N          66.1160   85.7423   15.2895 N.am    1  UNL1       -0.3253
     20 O          63.8801   86.0430   16.5780 O.2     1  UNL1       -0.2704
     21 H          66.6470   85.8475   14.4671 H       1  UNL1        0.1453
     22 H          66.5217   85.3346   16.0885 H       1  UNL1        0.1453
     23 C          62.8635   84.5948   10.1932 C.3     1  UNL1        0.0278
     24 C          62.1068   85.7154   10.8424 C.3     1  UNL1        0.1109
     25 N          60.6770   85.9708   10.4678 N.pl3   1  UNL1       -0.3142
     26 H          59.9982   85.2722   10.6112 H       1  UNL1        0.1485
     27 C          60.2813   87.2905    9.8748 C.ar    1  UNL1        0.1429
     28 N          60.1281   88.4937   10.7574 N.ar    1  UNL1       -0.2084
     29 C          59.7325   89.8134   10.1644 C.ar    1  UNL1        0.2012
     30 N          59.4900   89.9300    8.6887 N.ar    1  UNL1       -0.2087
     31 C          59.6431   88.7269    7.8061 C.ar    1  UNL1        0.1396
     32 N          59.4006   88.8435    6.3304 N.pl3   1  UNL1       -0.3420
     33 C          60.0388   87.4071    8.3991 C.ar    1  UNL1        0.1308
     34 H          59.1409   89.7097    5.9412 H       1  UNL1        0.1437
     35 H          59.5011   88.0539    5.7511 H       1  UNL1        0.1437
     36 C          60.1919   86.2040    7.5165 C.1     1  UNL1        0.1061
     37 N          60.3451   85.0009    6.6339 N.1     1  UNL1       -0.1906
@<TRIPOS>BOND
     1    24    23    1
     2    24    25    1
     3    25    27    1
     4    27    28   ar
     5    28    29   ar
     6    29    30   ar
     7    30    31   ar
     8    31    32    1
     9    31    33   ar
    10    33    36    1
    11    36    37    3
    12    24     1    1
    13     1     2   ar
    14     2     3   ar
    15     3     4   ar
    16     4     5   ar
    17     5     6   ar
    18     6     7    1
    19     6     8   ar
    20     8     9   ar
    21     9    10   ar
    22    10    18    1
    23    18    19   am
    24    18    20    2
    25    10    11   ar
    26    11    12    1
    27    12    13   ar
    28    13    14   ar
    29    14    15   ar
    30    15    16   ar
    31    16    17   ar
    32    33    27   ar
    33    11     1   ar
    34    17    12   ar
    35     9     3   ar
    36    25    26    1
    37    32    34    1
    38    32    35    1
    39    19    21    1
    40    19    22    1
@<TRIPOS>MOLECULE
*****
 37 40 0 0 0
SMALL
GASTEIGER

@<TRIPOS>ATOM
      1 C          63.2670   90.3769   11.9926 C.ar    1  UNL1        0.0768
      2 N          63.4634   91.3696   10.8855 N.ar    1  UNL1       -0.2480
      3 C          64.4633   92.4771   11.0398 C.ar    1  UNL1        0.0812
      4 C          64.6597   93.4699    9.9327 C.ar    1  UNL1        0.0214
      5 C          65.6597   94.5772   10.0870 C.ar    1  UNL1        0.0312
      6 C          66.4632   94.6918   11.3485 C.ar    1  UNL1        0.1402
      7 F          67.4631   95.7992   11.5028 F       1  UNL1       -0.2042
      8 C          66.2668   93.6990   12.4556 C.ar    1  UNL1        0.0313
      9 C          65.2668   92.5917   12.3012 C.ar    1  UNL1        0.0243
     10 C          65.0704   91.5988   13.4084 C.ar    1  UNL1        0.0558
     11 C          64.0705   90.4914   13.2541 C.ar    1  UNL1        0.0196
     12 C          63.8740   89.4986   14.3612 C.ar    1  UNL1        0.0013
     13 C          64.3664   88.0906   14.2021 C.ar    1  UNL1        0.0000
     14 C          64.1700   87.0978   15.3092 C.ar    1  UNL1        0.0000
     15 C          63.4812   87.5129   16.5753 C.ar    1  UNL1        0.0000
     16 C          62.9888   88.9208   16.7344 C.ar    1  UNL1        0.0000
     17 C          63.1852   89.9137   15.6274 C.ar    1  UNL1        0.0000
     18 C          65.8739   91.7134   14.6698 C.2     1  UNL1        0.2428
     19 N          67.2408   91.1004   14.7467 N.am    1  UNL1       -0.3253
     20 O          65.3106   92.4409   15.8544 O.2     1  UNL1       -0.2704
     21 H          67.6106   90.6228   13.9692 H       1  UNL1        0.1453
     22 H          67.7682   91.1755   15.5746 H       1  UNL1        0.1453
     23 C          61.0240   89.2590   12.6778 C.3     1  UNL1        0.0278
     24 C          62.2670   89.2694   11.8383 C.3     1  UNL1        0.1109
     25 N          62.5101   88.1725   10.8446 N.pl3   1  UNL1       -0.3142
     26 H          63.2957   87.5869   10.9401 H       1  UNL1        0.1485
     27 C          61.5562   87.9677    9.7053 C.ar    1  UNL1        0.1429
     28 N          60.6497   89.0833    9.2763 N.ar    1  UNL1       -0.2084
     29 C          59.6957   88.8785    8.1370 C.ar    1  UNL1        0.2012
     30 N          59.6482   87.5582    7.4266 N.ar    1  UNL1       -0.2087
     31 C          60.5547   86.4427    7.8555 C.ar    1  UNL1        0.1396
     32 N          60.5072   85.1225    7.1451 N.pl3   1  UNL1       -0.3420
     33 C          61.5087   86.6475    8.9949 C.ar    1  UNL1        0.1308
     34 H          59.8811   84.9881    6.3973 H       1  UNL1        0.1437
     35 H          61.1021   84.3903    7.4266 H       1  UNL1        0.1437
     36 C          62.4151   85.5320    9.4238 C.1     1  UNL1        0.1061
     37 N          63.3215   84.4165    9.8527 N.1     1  UNL1       -0.1906
@<TRIPOS>BOND
     1    24    23    1
     2    24    25    1
     3    25    27    1
     4    27    28   ar
     5    28    29   ar
     6    29    30   ar
     7    30    31   ar
     8    31    32    1
     9    31    33   ar
    10    33    36    1
    11    36    37    3
    12    24     1    1
    13     1     2   ar
    14     2     3   ar
    15     3     4   ar
    16     4     5   ar
    17     5     6   ar
    18     6     7    1
    19     6     8   ar
    20     8     9   ar
    21     9    10   ar
    22    10    18    1
    23    18    19   am
    24    18    20    2
    25    10    11   ar
    26    11    12    1
    27    12    13   ar
    28    13    14   ar
    29    14    15   ar
    30    15    16   ar
    31    16    17   ar
    32    33    27   ar
    33    11     1   ar
    34    17    12   ar
    35     9     3   ar
    36    25    26    1
    37    32    34    1
    38    32    35    1
    39    19    21    1
    40    19    22    1
@<TRIPOS>MOLECULE
*****
 37 40 0 0 0
SMALL
GASTEIGER

@<TRIPOS>ATOM
      1 C          63.4329   87.1880   13.0538 C.ar    1  UNL1        0.0768
      2 N          62.8325   86.1848   12.1140 N.ar    1  UNL1       -0.2480
      3 C          62.0691   86.6490   10.9091 C.ar    1  UNL1        0.0812
      4 C          61.4688   85.6459    9.9693 C.ar    1  UNL1        0.0214
      5 C          60.7054   86.1101    8.7645 C.ar    1  UNL1        0.0312
      6 C          60.5424   87.5775    8.4994 C.ar    1  UNL1        0.1402
      7 F          59.7789   88.0417    7.2945 F       1  UNL1       -0.2042
      8 C          61.1427   88.5806    9.4392 C.ar    1  UNL1        0.0313
      9 C          61.9061   88.1164   10.6441 C.ar    1  UNL1        0.0243
     10 C          62.5065   89.1196   11.5839 C.ar    1  UNL1        0.0558
     11 C          63.2699   88.6553   12.7888 C.ar    1  UNL1        0.0196
     12 C          63.8703   89.6585   13.7287 C.ar    1  UNL1        0.0013
     13 C          63.1241   90.0699   14.9632 C.ar    1  UNL1        0.0000
     14 C          63.7244   91.0730   15.9030 C.ar    1  UNL1        0.0000
     15 C          65.0709   91.6647   15.6083 C.ar    1  UNL1        0.0000
     16 C          65.8170   91.2533   14.3738 C.ar    1  UNL1        0.0000
     17 C          65.2167   90.2502   13.4340 C.ar    1  UNL1        0.0000
     18 C          62.3435   90.5869   11.3189 C.2     1  UNL1        0.2428
     19 N          61.0196   91.2500   11.5594 N.am    1  UNL1       -0.3253
     20 O          63.5042   91.3913   10.8134 O.2     1  UNL1       -0.2704
     21 H          60.2577   90.7220   11.8912 H       1  UNL1        0.1453
     22 H          60.9125   92.2130   11.3854 H       1  UNL1        0.1453
     23 C          64.1296   87.5068   15.5364 C.3     1  UNL1        0.0278
     24 C          64.1963   86.7237   14.2588 C.3     1  UNL1        0.1109
     25 N          65.0264   85.4765   14.1860 N.pl3   1  UNL1       -0.3142
     26 H          65.9691   85.4954   14.4691 H       1  UNL1        0.1485
     27 C          64.4200   84.2005   13.6820 C.ar    1  UNL1        0.1429
     28 N          64.9745   83.5403   12.4544 N.ar    1  UNL1       -0.2084
     29 C          64.3682   82.2642   11.9504 C.ar    1  UNL1        0.2012
     30 N          63.2074   81.6484   12.6738 N.ar    1  UNL1       -0.2087
     31 C          62.6530   82.3085   13.9013 C.ar    1  UNL1        0.1396
     32 N          61.4923   81.6926   14.6248 N.pl3   1  UNL1       -0.3420
     33 C          63.2593   83.5846   14.4054 C.ar    1  UNL1        0.1308
     34 H          61.0943   80.8551   14.2939 H       1  UNL1        0.1437
     35 H          61.1284   82.1259   15.4304 H       1  UNL1        0.1437
     36 C          62.7049   84.2447   15.6329 C.1     1  UNL1        0.1061
     37 N          62.1505   84.9049   16.8604 N.1     1  UNL1       -0.1906
@<TRIPOS>BOND
     1    24    23    1
     2    24    25    1
     3    25    27    1
     4    27    28   ar
     5    28    29   ar
     6    29    30   ar
     7    30    31   ar
     8    31    32    1
     9    31    33   ar
    10    33    36    1
    11    36    37    3
    12    24     1    1
    13     1     2   ar
    14     2     3   ar
    15     3     4   ar
    16     4     5   ar
    17     5     6   ar
    18     6     7    1
    19     6     8   ar
    20     8     9   ar
    21     9    10   ar
    22    10    18    1
    23    18    19   am
    24    18    20    2
    25    10    11   ar
    26    11    12    1
    27    12    13   ar
    28    13    14   ar
    29    14    15   ar
    30    15    16   ar
    31    16    17   ar
    32    33    27   ar
    33    11     1   ar
    34    17    12   ar
    35     9     3   ar
    36    25    26    1
    37    32    34    1
    38    32    35    1
    39    19    21    1
    40    19    22    1
@<TRIPOS>MOLECULE
*****
 37 40 0 0 0
SMALL
GASTEIGER

@<TRIPOS>ATOM
      1 C          62.7806   87.3364   11.6491 C.ar    1  UNL1        0.0768
      2 N          63.3452   87.4797   13.0314 N.ar    1  UNL1       -0.2480
      3 C          63.7650   86.2619   13.8001 C.ar    1  UNL1        0.0812
      4 C          64.3295   86.4052   15.1824 C.ar    1  UNL1        0.0214
      5 C          64.7493   85.1874   15.9510 C.ar    1  UNL1        0.0312
      6 C          64.6045   83.8264   15.3373 C.ar    1  UNL1        0.1402
      7 F          65.0243   82.6086   16.1060 F       1  UNL1       -0.2042
      8 C          64.0400   83.6831   13.9551 C.ar    1  UNL1        0.0313
      9 C          63.6202   84.9008   13.1864 C.ar    1  UNL1        0.0243
     10 C          63.0556   84.7576   11.8041 C.ar    1  UNL1        0.0558
     11 C          62.6359   85.9753   11.0355 C.ar    1  UNL1        0.0196
     12 C          62.0713   85.8321    9.6531 C.ar    1  UNL1        0.0013
     13 C          62.9519   85.3788    8.5266 C.ar    1  UNL1        0.0000
     14 C          62.3874   85.2355    7.1443 C.ar    1  UNL1        0.0000
     15 C          60.9423   85.5456    6.8886 C.ar    1  UNL1        0.0000
     16 C          60.0617   85.9988    8.0151 C.ar    1  UNL1        0.0000
     17 C          60.6262   86.1421    9.3974 C.ar    1  UNL1        0.0000
     18 C          62.9109   83.3965   11.1904 C.2     1  UNL1        0.2428
     19 N          63.8650   82.9499   10.1226 N.am    1  UNL1       -0.3253
     20 O          61.8120   82.4821   11.6446 O.2     1  UNL1       -0.2704
     21 H          64.5863   83.5501    9.8245 H       1  UNL1        0.1453
     22 H          63.7700   82.0566    9.7198 H       1  UNL1        0.1453
     23 C          62.1284   88.4642    9.4013 C.3     1  UNL1        0.0278
     24 C          62.3608   88.5542   10.8804 C.3     1  UNL1        0.1109
     25 N          62.1735   89.8619   11.5909 N.pl3   1  UNL1       -0.3142
     26 H          61.2942   90.0965   11.9666 H       1  UNL1        0.1485
     27 C          63.3258   90.8122   11.7289 C.ar    1  UNL1        0.1429
     28 N          63.8807   91.4993   10.5164 N.ar    1  UNL1       -0.2084
     29 C          65.0330   92.4496   10.6544 C.ar    1  UNL1        0.2012
     30 N          65.6304   92.7128   12.0049 N.ar    1  UNL1       -0.2087
     31 C          65.0756   92.0258   13.2174 C.ar    1  UNL1        0.1396
     32 N          65.6730   92.2891   14.5678 N.pl3   1  UNL1       -0.3420
     33 C          63.9232   91.0755   13.0794 C.ar    1  UNL1        0.1308
     34 H          66.4293   92.9129   14.6584 H       1  UNL1        0.1437
     35 H          65.3088   91.8382   15.3636 H       1  UNL1        0.1437
     36 C          63.3683   90.3885   14.2918 C.1     1  UNL1        0.1061
     37 N          62.8135   89.7015   15.5043 N.1     1  UNL1       -0.1906
@<TRIPOS>BOND
     1    24    23    1
     2    24    25    1
     3    25    27    1
     4    27    28   ar
     5    28    29   ar
     6    29    30   ar
     7    30    31   ar
     8    31    32    1
     9    31    33   ar
    10    33    36    1
    11    36    37    3
    12    24     1    1
    13     1     2   ar
    14     2     3   ar
    15     3     4   ar
    16     4     5   ar
    17     5     6   ar
    18     6     7    1
    19     6     8   ar
    20     8     9   ar
    21     9    10   ar
    22    10    18    1
    23    18    19   am
    24    18    20    2
    25    10    11   ar
    26    11    12    1
    27    12    13   ar
    28    13    14   ar
    29    14    15   ar
    30    15    16   ar
    31    16    17   ar
    32    33    27   ar
    33    11     1   ar
    34    17    12   ar
    35     9     3   ar
    36    25    26    1
    37    32    34    1
    38    32    35    1
    39    19    21    1
    40    19    22    1
@<TRIPOS>MOLECULE
*****
 37 40 0 0 0
SMALL
GASTEIGER

@<TRIPOS>ATOM
      1 C          62.9551   86.9305   12.3498 C.ar    1  UNL1        0.0768
      2 N          63.7830   87.4291   13.4969 N.ar    1  UNL1       -0.2480
      3 C          64.1279   88.8857   13.5955 C.ar    1  UNL1        0.0812
      4 C          64.9558   89.3843   14.7426 C.ar    1  UNL1        0.0214
      5 C          65.3006   90.8408   14.8412 C.ar    1  UNL1        0.0312
      6 C          64.8175   91.7986   13.7928 C.ar    1  UNL1        0.1402
      7 F          65.1624   93.2551   13.8915 F       1  UNL1       -0.2042
      8 C          63.9896   91.2999   12.6457 C.ar    1  UNL1        0.0313
      9 C          63.6447   89.8435   12.5471 C.ar    1  UNL1        0.0243
     10 C          62.8167   89.3447   11.4000 C.ar    1  UNL1        0.0558
     11 C          62.4719   87.8883   11.3014 C.ar    1  UNL1        0.0196
     12 C          61.6439   87.3895   10.1543 C.ar    1  UNL1        0.0013
     13 C          60.1571   87.5879   10.1605 C.ar    1  UNL1        0.0000
     14 C          59.3291   87.0892    9.0135 C.ar    1  UNL1        0.0000
     15 C          59.9879   86.3922    7.8603 C.ar    1  UNL1        0.0000
     16 C          61.4748   86.1938    7.8540 C.ar    1  UNL1        0.0000
     17 C          62.3027   86.6925    9.0010 C.ar    1  UNL1        0.0000
     18 C          62.3336   90.3025   10.3516 C.2     1  UNL1        0.2428
     19 N          60.8622   90.4983   10.1355 N.am    1  UNL1       -0.3253
     20 O          63.3218   91.0646    9.5193 O.2     1  UNL1       -0.2704
     21 H          60.2136   89.9981   10.6817 H       1  UNL1        0.1453
     22 H          60.5450   91.1269    9.4474 H       1  UNL1        0.1453
     23 C          61.5291   85.0209   11.3152 C.3     1  UNL1        0.0278
     24 C          62.6102   85.4739   12.2511 C.3     1  UNL1        0.1109
     25 N          63.3464   84.4705   13.0884 N.pl3   1  UNL1       -0.3142
     26 H          64.1712   84.7318   13.5582 H       1  UNL1        0.1485
     27 C          62.8260   83.0690   13.2098 C.ar    1  UNL1        0.1429
     28 N          61.9938   82.6780   14.3950 N.ar    1  UNL1       -0.2084
     29 C          61.4734   81.2764   14.5165 C.ar    1  UNL1        0.2012
     30 N          61.7852   80.2658   13.4528 N.ar    1  UNL1       -0.2087
     31 C          62.6173   80.6567   12.2676 C.ar    1  UNL1        0.1396
     32 N          62.9291   79.6461   11.2040 N.pl3   1  UNL1       -0.3420
     33 C          63.1378   82.0583   12.1461 C.ar    1  UNL1        0.1308
     34 H          62.5875   78.7262   11.2837 H       1  UNL1        0.1437
     35 H          63.4752   79.9027   10.4261 H       1  UNL1        0.1437
     36 C          63.9699   82.4493   10.9610 C.1     1  UNL1        0.1061
     37 N          64.8021   82.8402    9.7758 N.1     1  UNL1       -0.1906
@<TRIPOS>BOND
     1    24    23    1
     2    24    25    1
     3    25    27    1
     4    27    28   ar
     5    28    29   ar
     6    29    30   ar
     7    30    31   ar
     8    31    32    1
     9    31    33   ar
    10    33    36    1
    11    36    37    3
    12    24     1    1
    13     1     2   ar
    14     2     3   ar
    15     3     4   ar
    16     4     5   ar
    17     5     6   ar
    18     6     7    1
    19     6     8   ar
    20     8     9   ar
    21     9    10   ar
    22    10    18    1
    23    18    19   am
    24    18    20    2
    25    10    11   ar
    26    11    12    1
    27    12    13   ar
    28    13    14   ar
    29    14    15   ar
    30    15    16   ar
    31    16    17   ar
    32    33    27   ar
    33    11     1   ar
    34    17    12   ar
    35     9     3   ar
    36    25    26    1
    37    32    34    1
    38    32    35    1
    39    19    21    1
    40    19    22    1
@<TRIPOS>MOLECULE
*****
 37 40 0 0 0
SMALL
GASTEIGER

@<TRIPOS>ATOM
      1 C          63.1459   87.1486   12.3860 C.ar    1  UNL1        0.0768
      2 N          62.5245   86.2171   11.3880 N.ar    1  UNL1       -0.2480
      3 C          61.6778   86.7642   10.2772 C.ar    1  UNL1        0.0812
      4 C          61.0564   85.8326    9.2793 C.ar    1  UNL1        0.0214
      5 C          60.2096   86.3797    8.1686 C.ar    1  UNL1        0.0312
      6 C          59.9843   87.8584    8.0559 C.ar    1  UNL1        0.1402
      7 F          59.1376   88.4056    6.9451 F       1  UNL1       -0.2042
      8 C          60.6057   88.7900    9.0539 C.ar    1  UNL1        0.0313
      9 C          61.4524   88.2429   10.1645 C.ar    1  UNL1        0.0243
     10 C          62.0739   89.1744   11.1626 C.ar    1  UNL1        0.0558
     11 C          62.9206   88.6273   12.2733 C.ar    1  UNL1        0.0196
     12 C          63.5420   89.5589   13.2714 C.ar    1  UNL1        0.0013
     13 C          64.8292   90.2569   12.9456 C.ar    1  UNL1        0.0000
     14 C          65.4506   91.1884   13.9436 C.ar    1  UNL1        0.0000
     15 C          64.7849   91.4220   15.2673 C.ar    1  UNL1        0.0000
     16 C          63.4978   90.7240   15.5930 C.ar    1  UNL1        0.0000
     17 C          62.8764   89.7924   14.5951 C.ar    1  UNL1        0.0000
     18 C          61.8486   90.6531   11.0499 C.2     1  UNL1        0.2428
     19 N          60.5582   91.2535   11.5241 N.am    1  UNL1       -0.3253
     20 O          62.9135   91.5315   10.4631 O.2     1  UNL1       -0.2704
     21 H          59.8593   90.6770   11.9092 H       1  UNL1        0.1453
     22 H          60.4103   92.2240   11.4501 H       1  UNL1        0.1453
     23 C          64.2867   87.4457   14.7013 C.3     1  UNL1        0.0278
     24 C          63.9927   86.6015   13.4968 C.3     1  UNL1        0.1109
     25 N          64.5454   85.2102   13.4030 N.pl3   1  UNL1       -0.3142
     26 H          65.4591   85.0652   13.0663 H       1  UNL1        0.1485
     27 C          63.7060   84.0400   13.8221 C.ar    1  UNL1        0.1429
     28 N          63.0289   84.0436   15.1607 N.ar    1  UNL1       -0.2084
     29 C          62.1895   82.8734   15.5798 C.ar    1  UNL1        0.2012
     30 N          62.0270   81.6993   14.6604 N.ar    1  UNL1       -0.2087
     31 C          62.7040   81.6956   13.3219 C.ar    1  UNL1        0.1396
     32 N          62.5415   80.5216   12.4025 N.pl3   1  UNL1       -0.3420
     33 C          63.5435   82.8659   12.9027 C.ar    1  UNL1        0.1308
     34 H          61.9906   79.7535   12.6776 H       1  UNL1        0.1437
     35 H          62.9859   80.5191   11.5240 H       1  UNL1        0.1437
     36 C          64.2205   82.8622   11.5642 C.1     1  UNL1        0.1061
     37 N          64.8974   82.8585   10.2257 N.1     1  UNL1       -0.1906
@<TRIPOS>BOND
     1    24    23    1
     2    24    25    1
     3    25    27    1
     4    27    28   ar
     5    28    29   ar
     6    29    30   ar
     7    30    31   ar
     8    31    32    1
     9    31    33   ar
    10    33    36    1
    11    36    37    3
    12    24     1    1
    13     1     2   ar
    14     2     3   ar
    15     3     4   ar
    16     4     5   ar
    17     5     6   ar
    18     6     7    1
    19     6     8   ar
    20     8     9   ar
    21     9    10   ar
    22    10    18    1
    23    18    19   am
    24    18    20    2
    25    10    11   ar
    26    11    12    1
    27    12    13   ar
    28    13    14   ar
    29    14    15   ar
    30    15    16   ar
    31    16    17   ar
    32    33    27   ar
    33    11     1   ar
    34    17    12   ar
    35     9     3   ar
    36    25    26    1
    37    32    34    1
    38    32    35    1
    39    19    21    1
    40    19    22    1
@<TRIPOS>MOLECULE
*****
 37 40 0 0 0
SMALL
GASTEIGER

@<TRIPOS>ATOM
      1 C          63.6867   87.8062   13.6897 C.ar    1  UNL1        0.0768
      2 N          64.2638   86.6611   14.4679 N.ar    1  UNL1       -0.2480
      3 C          64.0877   85.2552   13.9754 C.ar    1  UNL1        0.0812
      4 C          64.6647   84.1101   14.7535 C.ar    1  UNL1        0.0214
      5 C          64.4886   82.7042   14.2610 C.ar    1  UNL1        0.0312
      6 C          63.7353   82.4436   12.9903 C.ar    1  UNL1        0.1402
      7 F          63.5591   81.0377   12.4978 F       1  UNL1       -0.2042
      8 C          63.1582   83.5887   12.2121 C.ar    1  UNL1        0.0313
      9 C          63.3344   84.9945   12.7047 C.ar    1  UNL1        0.0243
     10 C          62.7573   86.1397   11.9265 C.ar    1  UNL1        0.0558
     11 C          62.9335   87.5456   12.4190 C.ar    1  UNL1        0.0196
     12 C          62.3564   88.6908   11.6408 C.ar    1  UNL1        0.0013
     13 C          63.0760   89.2156   10.4339 C.ar    1  UNL1        0.0000
     14 C          62.4990   90.3608    9.6557 C.ar    1  UNL1        0.0000
     15 C          61.2023   90.9811   10.0845 C.ar    1  UNL1        0.0000
     16 C          60.4827   90.4563   11.2914 C.ar    1  UNL1        0.0000
     17 C          61.0597   89.3111   12.0696 C.ar    1  UNL1        0.0000
     18 C          62.0040   85.8791   10.6558 C.2     1  UNL1        0.2428
     19 N          62.7165   85.3095    9.4649 N.am    1  UNL1       -0.3253
     20 O          60.5384   86.1880   10.5759 O.2     1  UNL1       -0.2704
     21 H          63.6785   85.1067    9.5174 H       1  UNL1        0.1453
     22 H          62.2221   85.1384    8.6309 H       1  UNL1        0.1453
     23 C          63.4725   89.5696   15.5857 C.3     1  UNL1        0.0278
     24 C          63.8629   89.2121   14.1822 C.3     1  UNL1        0.1109
     25 N          64.4295   90.2605   13.2712 N.pl3   1  UNL1       -0.3142
     26 H          64.2605   90.2142   12.3024 H       1  UNL1        0.1485
     27 C          65.2534   91.3793   13.8363 C.ar    1  UNL1        0.1429
     28 N          65.7233   91.3198   15.2596 N.ar    1  UNL1       -0.2084
     29 C          66.5473   92.4386   15.8248 C.ar    1  UNL1        0.2012
     30 N          66.9013   93.6169   14.9666 N.ar    1  UNL1       -0.2087
     31 C          66.4314   93.6764   13.5434 C.ar    1  UNL1        0.1396
     32 N          66.7855   94.8546   12.6853 N.pl3   1  UNL1       -0.3420
     33 C          65.6074   92.5575   12.9782 C.ar    1  UNL1        0.1308
     34 H          67.3262   95.5889   13.0562 H       1  UNL1        0.1437
     35 H          66.4770   94.8936   11.7512 H       1  UNL1        0.1437
     36 C          65.1375   92.6170   11.5550 C.1     1  UNL1        0.1061
     37 N          64.6677   92.6765   10.1318 N.1     1  UNL1       -0.1906
@<TRIPOS>BOND
     1    24    23    1
     2    24    25    1
     3    25    27    1
     4    27    28   ar
     5    28    29   ar
     6    29    30   ar
     7    30    31   ar
     8    31    32    1
     9    31    33   ar
    10    33    36    1
    11    36    37    3
    12    24     1    1
    13     1     2   ar
    14     2     3   ar
    15     3     4   ar
    16     4     5   ar
    17     5     6   ar
    18     6     7    1
    19     6     8   ar
    20     8     9   ar
    21     9    10   ar
    22    10    18    1
    23    18    19   am
    24    18    20    2
    25    10    11   ar
    26    11    12    1
    27    12    13   ar
    28    13    14   ar
    29    14    15   ar
    30    15    16   ar
    31    16    17   ar
    32    33    27   ar
    33    11     1   ar
    34    17    12   ar
    35     9     3   ar
    36    25    26    1
    37    32    34    1
    38    32    35    1
    39    19    21    1
    40    19    22    1
@<TRIPOS>MOLECULE
*****
 37 40 0 0 0
SMALL
GASTEIGER

@<TRIPOS>ATOM
      1 C          62.9747   86.9626   12.1666 C.ar    1  UNL1        0.0768
      2 N          63.8507   87.3738   13.3127 N.ar    1  UNL1       -0.2480
      3 C          64.1477   88.8254   13.5465 C.ar    1  UNL1        0.0812
      4 C          65.0236   89.2366   14.6926 C.ar    1  UNL1        0.0214
      5 C          65.3206   90.6882   14.9263 C.ar    1  UNL1        0.0312
      6 C          64.7416   91.7286   14.0139 C.ar    1  UNL1        0.1402
      7 F          65.0386   93.1802   14.2477 F       1  UNL1       -0.2042
      8 C          63.8656   91.3174   12.8678 C.ar    1  UNL1        0.0313
      9 C          63.5687   89.8658   12.6341 C.ar    1  UNL1        0.0243
     10 C          62.6927   89.4545   11.4880 C.ar    1  UNL1        0.0558
     11 C          62.3957   88.0029   11.2543 C.ar    1  UNL1        0.0196
     12 C          61.5197   87.5916   10.1081 C.ar    1  UNL1        0.0013
     13 C          60.0561   87.9197   10.1275 C.ar    1  UNL1        0.0000
     14 C          59.1802   87.5084    8.9814 C.ar    1  UNL1        0.0000
     15 C          59.7677   86.7692    7.8160 C.ar    1  UNL1        0.0000
     16 C          61.2313   86.4411    7.7967 C.ar    1  UNL1        0.0000
     17 C          62.1073   86.8524    8.9427 C.ar    1  UNL1        0.0000
     18 C          62.1137   90.4949   10.5756 C.2     1  UNL1        0.2428
     19 N          62.9873   91.1747    9.5634 N.am    1  UNL1       -0.3253
     20 O          60.6611   90.8554   10.6755 O.2     1  UNL1       -0.2704
     21 H          63.9407   90.9381    9.4978 H       1  UNL1        0.1453
     22 H          62.6073   91.8576    8.9645 H       1  UNL1        0.1453
     23 C          61.3231   85.0919   11.4435 C.3     1  UNL1        0.0278
     24 C          62.6777   85.5109   11.9328 C.3     1  UNL1        0.1109
     25 N          63.7353   84.4784   12.1884 N.pl3   1  UNL1       -0.3142
     26 H          64.6677   84.7557   12.3396 H       1  UNL1        0.1485
     27 C          63.3721   83.0232   12.2138 C.ar    1  UNL1        0.1429
     28 N          63.5767   82.1778   10.9917 N.ar    1  UNL1       -0.2084
     29 C          63.2136   80.7226   11.0171 C.ar    1  UNL1        0.2012
     30 N          62.6458   80.1129   12.2644 N.ar    1  UNL1       -0.2087
     31 C          62.4412   80.9583   13.4864 C.ar    1  UNL1        0.1396
     32 N          61.8735   80.3486   14.7338 N.pl3   1  UNL1       -0.3420
     33 C          62.8044   82.4135   13.4611 C.ar    1  UNL1        0.1308
     34 H          61.6352   79.3935   14.7504 H       1  UNL1        0.1437
     35 H          61.7392   80.9035   15.5359 H       1  UNL1        0.1437
     36 C          62.5998   83.2589   14.6832 C.1     1  UNL1        0.1061
     37 N          62.3952   84.1043   15.9052 N.1     1  UNL1       -0.1906
@<TRIPOS>BOND
     1    24    23    1
     2    24    25    1
     3    25    27    1
     4    27    28   ar
     5    28    29   ar
     6    29    30   ar
     7    30    31   ar
     8    31    32    1
     9    31    33   ar
    10    33    36    1
    11    36    37    3
    12    24     1    1
    13     1     2   ar
    14     2     3   ar
    15     3     4   ar
    16     4     5   ar
    17     5     6   ar
    18     6     7    1
    19     6     8   ar
    20     8     9   ar
    21     9    10   ar
    22    10    18    1
    23    18    19   am
    24    18    20    2
    25    10    11   ar
    26    11    12    1
    27    12    13   ar
    28    13    14   ar
    29    14    15   ar
    30    15    16   ar
    31    16    17   ar
    32    33    27   ar
    33    11     1   ar
    34    17    12   ar
    35     9     3   ar
    36    25    26    1
    37    32    34    1
    38    32    35    1
    39    19    21    1
    40    19    22    1
@<TRIPOS>MOLECULE
*****
 37 40 0 0 0
SMALL
GASTEIGER

@<TRIPOS>ATOM
      1 C          61.5506   87.8315   11.2745 C.ar    1  UNL1        0.0768
      2 N          62.3151   87.0456   12.2981 N.ar    1  UNL1       -0.2480
      3 C          62.8901   85.7072   11.9400 C.ar    1  UNL1        0.0812
      4 C          63.6546   84.9212   12.9636 C.ar    1  UNL1        0.0214
      5 C          64.2295   83.5829   12.6055 C.ar    1  UNL1        0.0312
      6 C          64.0399   83.0305   11.2239 C.ar    1  UNL1        0.1402
      7 F          64.6149   81.6921   10.8658 F       1  UNL1       -0.2042
      8 C          63.2754   83.8164   10.2003 C.ar    1  UNL1        0.0313
      9 C          62.7005   85.1548   10.5584 C.ar    1  UNL1        0.0243
     10 C          61.9359   85.9408    9.5348 C.ar    1  UNL1        0.0558
     11 C          61.3610   87.2792    9.8929 C.ar    1  UNL1        0.0196
     12 C          60.5964   88.0652    8.8693 C.ar    1  UNL1        0.0013
     13 C          59.3624   87.4838    8.2455 C.ar    1  UNL1        0.0000
     14 C          58.5978   88.2697    7.2220 C.ar    1  UNL1        0.0000
     15 C          59.0673   89.6371    6.8222 C.ar    1  UNL1        0.0000
     16 C          60.3013   90.2185    7.4460 C.ar    1  UNL1        0.0000
     17 C          61.0659   89.4326    8.4696 C.ar    1  UNL1        0.0000
     18 C          61.7463   85.3884    8.1532 C.2     1  UNL1        0.2428
     19 N          62.9402   85.0610    7.3060 N.am    1  UNL1       -0.3253
     20 O          60.3630   85.1635    7.6187 O.2     1  UNL1       -0.2704
     21 H          63.8481   85.2087    7.6568 H       1  UNL1        0.1453
     22 H          62.8158   84.6985    6.3992 H       1  UNL1        0.1453
     23 C          59.4979   89.3194   11.8428 C.3     1  UNL1        0.0278
     24 C          60.9756   89.1699   11.6326 C.3     1  UNL1        0.1109
     25 N          61.8782   90.3587   11.7804 N.pl3   1  UNL1       -0.3142
     26 H          61.8595   91.0777   11.1081 H       1  UNL1        0.1485
     27 C          62.8095   90.4521   12.9526 C.ar    1  UNL1        0.1429
     28 N          62.4450   89.8009   14.2538 N.ar    1  UNL1       -0.2084
     29 C          63.3763   89.8943   15.4260 C.ar    1  UNL1        0.2012
     30 N          64.6720   90.6389   15.2970 N.ar    1  UNL1       -0.2087
     31 C          65.0365   91.2901   13.9958 C.ar    1  UNL1        0.1396
     32 N          66.3323   92.0346   13.8668 N.pl3   1  UNL1       -0.3420
     33 C          64.1052   91.1967   12.8236 C.ar    1  UNL1        0.1308
     34 H          66.9435   92.0959   14.6362 H       1  UNL1        0.1437
     35 H          66.5715   92.4620   13.0128 H       1  UNL1        0.1437
     36 C          64.4697   91.8479   11.5224 C.1     1  UNL1        0.1061
     37 N          64.8342   92.4991   10.2213 N.1     1  UNL1       -0.1906
@<TRIPOS>BOND
     1    24    23    1
     2    24    25    1
     3    25    27    1
     4    27    28   ar
     5    28    29   ar
     6    29    30   ar
     7    30    31   ar
     8    31    32    1
     9    31    33   ar
    10    33    36    1
    11    36    37    3
    12    24     1    1
    13     1     2   ar
    14     2     3   ar
    15     3     4   ar
    16     4     5   ar
    17     5     6   ar
    18     6     7    1
    19     6     8   ar
    20     8     9   ar
    21     9    10   ar
    22    10    18    1
    23    18    19   am
    24    18    20    2
    25    10    11   ar
    26    11    12    1
    27    12    13   ar
    28    13    14   ar
    29    14    15   ar
    30    15    16   ar
    31    16    17   ar
    32    33    27   ar
    33    11     1   ar
    34    17    12   ar
    35     9     3   ar
    36    25    26    1
    37    32    34    1
    38    32    35    1
    39    19    21    1
    40    19    22    1
