@<TRIPOS>MOLECULE
*****
 67 75 0 0 0
SMALL
GASTEIGER

@<TRIPOS>ATOM
      1 N          58.6391   94.6646   -6.2434 N.3     1  UNL1       -0.1862
      2 C          59.9178   94.6442   -7.0272 C.3     1  UNL1        0.1775
      3 C          61.2153   94.9816   -6.3546 C.2     1  UNL1        0.2452
      4 O          62.4941   94.9611   -7.1385 O.2     1  UNL1       -0.2732
      5 N          61.2342   95.3393   -4.8980 N.am    1  UNL1       -0.2541
      6 C          62.5318   95.6767   -4.2253 C.3     1  UNL1        0.1577
      7 C          62.5507   96.0344   -2.7688 C.2     1  UNL1        0.2445
      8 O          63.8483   96.3718   -2.0961 O.2     1  UNL1       -0.2731
      9 N          61.2720   96.0548   -1.9848 N.am    1  UNL1       -0.2705
     10 C          59.9744   95.7175   -2.6575 C.3     1  UNL1        0.1359
     11 C          59.9556   95.3597   -4.1141 C.3     1  UNL1        0.1908
     12 N          58.6580   95.0224   -4.7868 N.am    1  UNL1       -0.1863
     13 C          57.3793   95.0428   -4.0028 C.2     1  UNL1        0.3191
     14 O          57.3982   95.4006   -2.5463 O.2     1  UNL1       -0.2512
     15 N          56.0817   94.7055   -4.6755 N.am    1  UNL1       -0.2836
     16 H          56.0693   94.4707   -5.6315 H       1  UNL1        0.1513
     17 C          57.3415   94.3273   -6.9160 C.3     1  UNL1        0.1188
     18 C          55.9640   92.1246   -6.8931 C.2     1  UNL1       -0.0034
     19 C          57.1027   92.9391   -7.4316 C.2     1  UNL1       -0.0071
     20 C          63.8105   95.6562   -5.0092 C.3     1  UNL1        0.0556
     21 C          64.3610   94.3548   -5.5125 C.ar    1  UNL1       -0.0198
     22 C          65.3128   94.3413   -6.6718 C.ar    1  UNL1       -0.0011
     23 C          65.8632   93.0399   -7.1751 C.ar    1  UNL1        0.0363
     24 C          65.4619   91.7520   -6.5192 C.ar    1  UNL1        0.1337
     25 O          66.0124   90.4506   -7.0225 O.3     1  UNL1       -0.5055
     26 C          64.5101   91.7655   -5.3599 C.ar    1  UNL1        0.0363
     27 C          63.9596   93.0669   -4.8565 C.ar    1  UNL1       -0.0011
     28 H          66.6070   90.4422   -7.7467 H       1  UNL1        0.2922
     29 C          61.2909   96.4126   -0.5283 C.3     1  UNL1        0.1217
     30 C          62.0013   95.5273    0.4524 C.ar    1  UNL1        0.0135
     31 C          63.4910   95.6186    0.6029 C.ar    1  UNL1       -0.0012
     32 C          64.2014   94.7333    1.5834 C.ar    1  UNL1       -0.0002
     33 C          63.4222   93.7568    2.4135 C.ar    1  UNL1        0.0016
     34 C          61.9326   93.6654    2.2630 C.ar    1  UNL1        0.0214
     35 C          60.9063   92.8054    2.9392 C.ar    1  UNL1        0.0722
     36 C          59.5616   93.1592    2.3765 C.ar    1  UNL1        0.0805
     37 N          59.7568   94.2378    1.3526 N.ar    1  UNL1       -0.3241
     38 C          58.6764   94.8892    0.5413 C.3     1  UNL1        0.1305
     39 C          61.2221   94.5507    1.2824 C.ar    1  UNL1        0.0577
     40 C          61.1772   91.7729    3.9931 C.2     1  UNL1        0.2510
     41 O          62.4915   91.0501    4.0146 O.2     1  UNL1       -0.2698
     42 N          60.1339   91.4632    5.0253 N.am    1  UNL1       -0.2791
     43 H          59.2714   91.9376    5.0111 H       1  UNL1        0.1552
     44 C          60.4048   90.4307    6.0792 C.ar    1  UNL1        0.0701
     45 C          59.8633   89.0405    5.9237 C.ar    1  UNL1        0.0191
     46 C          60.1341   88.0080    6.9775 C.ar    1  UNL1        0.0356
     47 C          60.9463   88.3657    8.1868 C.ar    1  UNL1        0.1319
     48 N          61.4877   89.7559    8.3423 N.ar    1  UNL1       -0.2279
     49 C          61.2170   90.7884    7.2885 C.ar    1  UNL1        0.1149
     50 N          61.2171   87.3332    9.2406 N.pl3   1  UNL1       -0.2904
     51 C          61.0137   87.6681   10.6886 C.3     1  UNL1        0.1095
     52 C          61.2845   86.6357   11.7425 C.3     1  UNL1        0.0938
     53 N          61.7588   85.2683   11.3485 N.3     1  UNL1       -0.2711
     54 C          61.9622   84.9333    9.9007 C.3     1  UNL1        0.0938
     55 C          61.6914   85.9658    8.8467 C.3     1  UNL1        0.1095
     56 C          62.0296   84.2359   12.4024 C.3     1  UNL1        0.0576
     57 C          62.2360   82.7689   12.1671 C.3     1  UNL1        0.0160
     58 C          62.4755   82.1155   13.4960 C.3     1  UNL1        0.0014
     59 C          62.4171   83.1787   14.5525 C.3     1  UNL1        0.0014
     60 C          62.1415   84.4891   13.8766 C.3     1  UNL1        0.0160
     61 C          54.8030   94.7259   -3.8916 C.3     1  UNL1        0.1177
     62 C          53.5998   95.4359   -4.4377 C.ar    1  UNL1       -0.0025
     63 C          52.4727   95.8139   -3.5229 C.ar    1  UNL1       -0.0026
     64 C          51.2695   96.5238   -4.0690 C.ar    1  UNL1       -0.0003
     65 C          51.1933   96.8558   -5.5298 C.ar    1  UNL1       -0.0000
     66 C          52.3204   96.4778   -6.4446 C.ar    1  UNL1       -0.0003
     67 C          53.5237   95.7679   -5.8985 C.ar    1  UNL1       -0.0026
@<TRIPOS>BOND
     1    18    19    2
     2    19    17    1
     3    17     1    1
     4     1     2    1
     5     2     3    1
     6     3     4    2
     7     3     5   am
     8     5     6    1
     9     6    20    1
    10    20    21    1
    11    21    22   ar
    12    22    23   ar
    13    23    24   ar
    14    24    25    1
    15    24    26   ar
    16    26    27   ar
    17     6     7    1
    18     7     8    2
    19     7     9   am
    20     9    29    1
    21    29    30    1
    22    30    31   ar
    23    31    32   ar
    24    32    33   ar
    25    33    34   ar
    26    34    35   ar
    27    35    40    1
    28    40    41    2
    29    40    42   am
    30    42    44    1
    31    44    45   ar
    32    45    46   ar
    33    46    47   ar
    34    47    50    1
    35    50    51    1
    36    51    52    1
    37    52    53    1
    38    53    56    1
    39    56    57    1
    40    57    58    1
    41    58    59    1
    42    59    60    1
    43    53    54    1
    44    54    55    1
    45    47    48   ar
    46    48    49   ar
    47    35    36   ar
    48    36    37   ar
    49    37    38    1
    50    37    39   ar
    51     9    10    1
    52    11    10    1
    53    11    12    1
    54    12    13   am
    55    13    14    2
    56    13    15   am
    57    15    61    1
    58    61    62    1
    59    62    63   ar
    60    63    64   ar
    61    64    65   ar
    62    65    66   ar
    63    66    67   ar
    64    12     1    1
    65    67    62   ar
    66    11     5    1
    67    27    21   ar
    68    39    30   ar
    69    39    34   ar
    70    49    44   ar
    71    55    50    1
    72    60    56    1
    73    25    28    1
    74    42    43    1
    75    15    16    1
@<TRIPOS>MOLECULE
*****
 67 75 0 0 0
SMALL
GASTEIGER

@<TRIPOS>ATOM
      1 N          59.0521   93.7044   -6.4391 N.3     1  UNL1       -0.1862
      2 C          60.1276   94.2939   -7.3028 C.3     1  UNL1        0.1775
      3 C          61.2670   95.0416   -6.6762 C.2     1  UNL1        0.2452
      4 O          62.3425   95.6310   -7.5399 O.2     1  UNL1       -0.2732
      5 N          61.3310   95.1998   -5.1860 N.am    1  UNL1       -0.2541
      6 C          62.4705   95.9476   -4.5594 C.3     1  UNL1        0.1577
      7 C          62.5345   96.1058   -3.0692 C.2     1  UNL1        0.2445
      8 O          63.6739   96.8536   -2.4426 O.2     1  UNL1       -0.2731
      9 N          61.4590   95.5164   -2.2055 N.am    1  UNL1       -0.2705
     10 C          60.3195   94.7687   -2.8320 C.3     1  UNL1        0.1359
     11 C          60.2556   94.6104   -4.3223 C.3     1  UNL1        0.1908
     12 N          59.1161   93.8627   -4.9489 N.am    1  UNL1       -0.1863
     13 C          58.0406   93.2733   -4.0852 C.2     1  UNL1        0.3191
     14 O          58.1046   93.4315   -2.5950 O.2     1  UNL1       -0.2512
     15 N          56.9012   92.5256   -4.7117 N.am    1  UNL1       -0.2836
     16 H          56.8592   92.4217   -5.6898 H       1  UNL1        0.1513
     17 C          57.9127   92.9567   -7.0657 C.3     1  UNL1        0.1188
     18 C          55.8097   94.4056   -6.5881 C.2     1  UNL1       -0.0034
     19 C          56.7087   93.7018   -7.5609 C.2     1  UNL1       -0.0071
     20 C          63.5459   96.5370   -5.4231 C.3     1  UNL1        0.0556
     21 C          64.6900   95.6832   -5.8837 C.ar    1  UNL1       -0.0198
     22 C          65.8205   96.2968   -6.6554 C.ar    1  UNL1       -0.0011
     23 C          66.9646   95.4430   -7.1160 C.ar    1  UNL1        0.0363
     24 C          66.9782   93.9758   -6.8049 C.ar    1  UNL1        0.1337
     25 O          68.1223   93.1220   -7.2655 O.3     1  UNL1       -0.5055
     26 C          65.8477   93.3621   -6.0332 C.ar    1  UNL1        0.0363
     27 C          64.7036   94.2159   -5.5725 C.ar    1  UNL1       -0.0011
     28 H          68.8285   93.5053   -7.7476 H       1  UNL1        0.2922
     29 C          61.5230   95.6747   -0.7152 C.3     1  UNL1        0.1217
     30 C          62.1864   94.6223    0.1230 C.ar    1  UNL1        0.0135
     31 C          63.5850   94.1826   -0.1939 C.ar    1  UNL1       -0.0012
     32 C          64.2485   93.1303    0.6442 C.ar    1  UNL1       -0.0002
     33 C          63.5132   92.5178    1.7993 C.ar    1  UNL1        0.0016
     34 C          62.1146   92.9575    2.1162 C.ar    1  UNL1        0.0214
     35 C          61.1479   92.5375    3.1834 C.ar    1  UNL1        0.0722
     36 C          59.8871   93.3301    3.0049 C.ar    1  UNL1        0.0805
     37 N          60.0745   94.2401    1.8273 N.ar    1  UNL1       -0.3241
     38 C          59.0628   95.2100    1.2928 C.3     1  UNL1        0.1305
     39 C          61.4512   94.0098    1.2780 C.ar    1  UNL1        0.0577
     40 C          61.3982   91.5058    4.2433 C.2     1  UNL1        0.2510
     41 O          62.6761   90.7204    4.2385 O.2     1  UNL1       -0.2698
     42 N          60.3705   91.2595    5.3078 N.am    1  UNL1       -0.2791
     43 H          59.5317   91.7750    5.3109 H       1  UNL1        0.1552
     44 C          60.6207   90.2279    6.3675 C.ar    1  UNL1        0.0701
     45 C          59.9309   88.8978    6.2970 C.ar    1  UNL1        0.0191
     46 C          60.1810   87.8661    7.3568 C.ar    1  UNL1        0.0356
     47 C          61.1209   88.1646    8.4870 C.ar    1  UNL1        0.1319
     48 N          61.8107   89.4947    8.5576 N.ar    1  UNL1       -0.2279
     49 C          61.5605   90.5264    7.4978 C.ar    1  UNL1        0.1149
     50 N          61.3711   87.1330    9.5468 N.pl3   1  UNL1       -0.2904
     51 C          62.0218   85.8303    9.1867 C.3     1  UNL1        0.1095
     52 C          62.2720   84.7986   10.2464 C.3     1  UNL1        0.0938
     53 N          61.8716   85.0696   11.6663 N.3     1  UNL1       -0.2711
     54 C          61.2209   86.3723   12.0265 C.3     1  UNL1        0.0938
     55 C          60.9707   87.4040   10.9667 C.3     1  UNL1        0.1095
     56 C          62.1217   84.0380   12.7261 C.3     1  UNL1        0.0576
     57 C          62.0587   84.2629   14.2078 C.3     1  UNL1        0.0160
     58 C          62.3769   82.9642   14.8877 C.3     1  UNL1        0.0014
     59 C          62.6367   81.9367   13.8261 C.3     1  UNL1        0.0014
     60 C          62.4790   82.6004   12.4902 C.3     1  UNL1        0.0160
     61 C          55.8257   91.9361   -3.8481 C.3     1  UNL1        0.1177
     62 C          55.1433   90.6661   -4.2620 C.ar    1  UNL1       -0.0025
     63 C          54.9864   89.5442   -3.2789 C.ar    1  UNL1       -0.0026
     64 C          54.3039   88.2742   -3.6929 C.ar    1  UNL1       -0.0003
     65 C          53.7784   88.1261   -5.0900 C.ar    1  UNL1       -0.0000
     66 C          53.9353   89.2481   -6.0732 C.ar    1  UNL1       -0.0003
     67 C          54.6177   90.5181   -5.6592 C.ar    1  UNL1       -0.0026
@<TRIPOS>BOND
     1    18    19    2
     2    19    17    1
     3    17     1    1
     4     1     2    1
     5     2     3    1
     6     3     4    2
     7     3     5   am
     8     5     6    1
     9     6    20    1
    10    20    21    1
    11    21    22   ar
    12    22    23   ar
    13    23    24   ar
    14    24    25    1
    15    24    26   ar
    16    26    27   ar
    17     6     7    1
    18     7     8    2
    19     7     9   am
    20     9    29    1
    21    29    30    1
    22    30    31   ar
    23    31    32   ar
    24    32    33   ar
    25    33    34   ar
    26    34    35   ar
    27    35    40    1
    28    40    41    2
    29    40    42   am
    30    42    44    1
    31    44    45   ar
    32    45    46   ar
    33    46    47   ar
    34    47    50    1
    35    50    51    1
    36    51    52    1
    37    52    53    1
    38    53    56    1
    39    56    57    1
    40    57    58    1
    41    58    59    1
    42    59    60    1
    43    53    54    1
    44    54    55    1
    45    47    48   ar
    46    48    49   ar
    47    35    36   ar
    48    36    37   ar
    49    37    38    1
    50    37    39   ar
    51     9    10    1
    52    11    10    1
    53    11    12    1
    54    12    13   am
    55    13    14    2
    56    13    15   am
    57    15    61    1
    58    61    62    1
    59    62    63   ar
    60    63    64   ar
    61    64    65   ar
    62    65    66   ar
    63    66    67   ar
    64    12     1    1
    65    67    62   ar
    66    11     5    1
    67    27    21   ar
    68    39    30   ar
    69    39    34   ar
    70    49    44   ar
    71    55    50    1
    72    60    56    1
    73    25    28    1
    74    42    43    1
    75    15    16    1
@<TRIPOS>MOLECULE
*****
 67 75 0 0 0
SMALL
GASTEIGER

@<TRIPOS>ATOM
      1 N          65.7210   89.9293   13.9614 N.3     1  UNL1       -0.1862
      2 C          66.1531   88.7639   14.8010 C.3     1  UNL1        0.1775
      3 C          65.3545   87.4942   14.7895 C.2     1  UNL1        0.2452
      4 O          65.7867   86.3287   15.6292 O.2     1  UNL1       -0.2732
      5 N          64.1238   87.3899   13.9383 N.am    1  UNL1       -0.2541
      6 C          63.3252   86.1203   13.9268 C.3     1  UNL1        0.1577
      7 C          62.0946   86.0160   13.0757 C.2     1  UNL1        0.2445
      8 O          61.2960   84.7463   13.0641 O.2     1  UNL1       -0.2731
      9 N          61.6624   87.1815   12.2360 N.am    1  UNL1       -0.2705
     10 C          62.4610   88.4512   12.2475 C.3     1  UNL1        0.1359
     11 C          63.6918   88.5554   13.0987 C.3     1  UNL1        0.1908
     12 N          64.4904   89.8251   13.1102 N.am    1  UNL1       -0.1863
     13 C          64.0582   90.9905   12.2706 C.2     1  UNL1        0.3191
     14 O          62.8275   90.8863   11.4194 O.2     1  UNL1       -0.2512
     15 N          64.8568   92.2602   12.2821 N.am    1  UNL1       -0.2836
     16 H          65.6646   92.3286   12.8407 H       1  UNL1        0.1513
     17 C          66.5196   91.1990   13.9729 C.3     1  UNL1        0.1188
     18 C          66.9314   92.7338   16.0283 C.2     1  UNL1       -0.0034
     19 C          67.3319   91.5632   15.1802 C.2     1  UNL1       -0.0071
     20 C          63.7573   84.9548   14.7664 C.3     1  UNL1        0.0556
     21 C          63.4516   83.5554   14.3212 C.ar    1  UNL1       -0.0198
     22 C          64.3020   82.8988   13.2745 C.ar    1  UNL1       -0.0011
     23 C          63.9963   81.4994   12.8293 C.ar    1  UNL1        0.0363
     24 C          62.8402   80.7566   13.4308 C.ar    1  UNL1        0.1337
     25 O          62.5345   79.3572   12.9855 O.3     1  UNL1       -0.5055
     26 C          61.9898   81.4133   14.4775 C.ar    1  UNL1        0.0363
     27 C          62.2955   82.8127   14.9228 C.ar    1  UNL1       -0.0011
     28 H          63.0657   78.9470   12.3317 H       1  UNL1        0.2922
     29 C          60.4317   87.0772   11.3848 C.3     1  UNL1        0.1217
     30 C          60.5445   87.1522    9.8909 C.ar    1  UNL1        0.0135
     31 C          60.9917   85.9512    9.1113 C.ar    1  UNL1       -0.0012
     32 C          61.1044   86.0262    7.6175 C.ar    1  UNL1       -0.0002
     33 C          60.7699   87.3020    6.9032 C.ar    1  UNL1        0.0016
     34 C          60.3227   88.5030    7.6827 C.ar    1  UNL1        0.0214
     35 C          59.9283   89.8861    7.2570 C.ar    1  UNL1        0.0722
     36 C          59.5718   90.6660    8.4877 C.ar    1  UNL1        0.0805
     37 N          59.7459   89.7649    9.6740 N.ar    1  UNL1       -0.3241
     38 C          59.4992   90.1355   11.1064 C.3     1  UNL1        0.1305
     39 C          60.2100   88.4281    9.1766 C.ar    1  UNL1        0.0577
     40 C          59.8960   90.3993    5.8478 C.2     1  UNL1        0.2510
     41 O          58.7159   90.1059    4.9696 O.2     1  UNL1       -0.2698
     42 N          61.0439   91.2058    5.3168 N.am    1  UNL1       -0.2791
     43 H          61.8184   91.3984    5.8932 H       1  UNL1        0.1552
     44 C          61.0117   91.7190    3.9077 C.ar    1  UNL1        0.0701
     45 C          62.1843   91.4925    3.0002 C.ar    1  UNL1        0.0191
     46 C          62.1522   92.0056    1.5911 C.ar    1  UNL1        0.0356
     47 C          60.9475   92.7453    1.0895 C.ar    1  UNL1        0.1319
     48 N          59.7749   92.9718    1.9971 N.ar    1  UNL1       -0.2279
     49 C          59.8070   92.4587    3.4062 C.ar    1  UNL1        0.1149
     50 N          60.9153   93.2584   -0.3196 N.pl3   1  UNL1       -0.2904
     51 C          59.7683   92.9066   -1.2199 C.3     1  UNL1        0.1095
     52 C          59.7360   93.4197   -2.6290 C.3     1  UNL1        0.0938
     53 N          60.8508   94.2847   -3.1379 N.3     1  UNL1       -0.2711
     54 C          61.9979   94.6366   -2.2377 C.3     1  UNL1        0.0938
     55 C          62.0301   94.1235   -0.8284 C.3     1  UNL1        0.1095
     56 C          60.8186   94.7979   -4.5470 C.3     1  UNL1        0.0576
     57 C          61.8757   94.5806   -5.5888 C.3     1  UNL1        0.0160
     58 C          61.4340   95.2669   -6.8474 C.3     1  UNL1        0.0014
     59 C          60.1040   95.9084   -6.5834 C.3     1  UNL1        0.0014
     60 C          59.7237   95.6185   -5.1616 C.3     1  UNL1        0.0160
     61 C          64.4247   93.4257   11.4425 C.3     1  UNL1        0.1177
     62 C          65.4299   94.1618   10.6071 C.ar    1  UNL1       -0.0025
     63 C          66.5876   93.4238   10.0030 C.ar    1  UNL1       -0.0026
     64 C          67.5927   94.1599    9.1676 C.ar    1  UNL1       -0.0003
     65 C          67.4402   95.6341    8.9365 C.ar    1  UNL1       -0.0000
     66 C          66.2825   96.3722    9.5407 C.ar    1  UNL1       -0.0003
     67 C          65.2773   95.6361   10.3760 C.ar    1  UNL1       -0.0026
@<TRIPOS>BOND
     1    18    19    2
     2    19    17    1
     3    17     1    1
     4     1     2    1
     5     2     3    1
     6     3     4    2
     7     3     5   am
     8     5     6    1
     9     6    20    1
    10    20    21    1
    11    21    22   ar
    12    22    23   ar
    13    23    24   ar
    14    24    25    1
    15    24    26   ar
    16    26    27   ar
    17     6     7    1
    18     7     8    2
    19     7     9   am
    20     9    29    1
    21    29    30    1
    22    30    31   ar
    23    31    32   ar
    24    32    33   ar
    25    33    34   ar
    26    34    35   ar
    27    35    40    1
    28    40    41    2
    29    40    42   am
    30    42    44    1
    31    44    45   ar
    32    45    46   ar
    33    46    47   ar
    34    47    50    1
    35    50    51    1
    36    51    52    1
    37    52    53    1
    38    53    56    1
    39    56    57    1
    40    57    58    1
    41    58    59    1
    42    59    60    1
    43    53    54    1
    44    54    55    1
    45    47    48   ar
    46    48    49   ar
    47    35    36   ar
    48    36    37   ar
    49    37    38    1
    50    37    39   ar
    51     9    10    1
    52    11    10    1
    53    11    12    1
    54    12    13   am
    55    13    14    2
    56    13    15   am
    57    15    61    1
    58    61    62    1
    59    62    63   ar
    60    63    64   ar
    61    64    65   ar
    62    65    66   ar
    63    66    67   ar
    64    12     1    1
    65    67    62   ar
    66    11     5    1
    67    27    21   ar
    68    39    30   ar
    69    39    34   ar
    70    49    44   ar
    71    55    50    1
    72    60    56    1
    73    25    28    1
    74    42    43    1
    75    15    16    1
