@<TRIPOS>MOLECULE
*****
 36 41 0 0 0
SMALL
GASTEIGER

@<TRIPOS>ATOM
      1 C          63.2884   88.2584   12.9852 C.3     1  UNL1        0.1095
      2 C          64.1387   87.9167   14.1726 C.3     1  UNL1        0.1597
      3 O          64.4449   86.4825   14.4881 O.3     1  UNL1       -0.3533
      4 C          63.9007   85.3901   13.6160 C.3     1  UNL1        0.1315
      5 C          64.0327   83.8972   13.6772 C.3     1  UNL1        0.0311
      6 C          63.2640   83.3164   12.5276 C.3     1  UNL1        0.0041
      7 C          62.6568   84.4503   11.7558 C.3     1  UNL1        0.0203
      8 C          63.0503   85.7320   12.4285 C.3     1  UNL1        0.1066
      9 N          62.7442   87.1661   12.1131 N.3     1  UNL1       -0.1534
     10 C          62.9822   89.6927   12.6698 C.3     1  UNL1        0.0261
     11 C          62.2048   90.9650   12.5064 C.3     1  UNL1        0.0020
     12 C          61.5189   89.7248   12.9980 C.3     1  UNL1        0.0020
     13 C          64.3392   90.1585   12.2321 C.3     1  UNL1        0.0867
     14 C          65.7183   92.2914   13.8516 C.3     1  UNL1        0.0948
     15 C          65.3884   92.4554   12.3976 C.2     1  UNL1        0.2261
     16 O          64.6999   91.3488   11.6552 O.2     1  UNL1       -0.2749
     17 N          65.7471   93.7263   11.6859 N.am    1  UNL1       -0.2794
     18 C          66.4336   94.9135   12.2935 C.3     1  UNL1        0.0952
     19 C          66.5929   95.9538   11.2247 C.3     1  UNL1        0.0233
     20 C          66.0050   95.4097    9.9566 C.3     1  UNL1        0.0233
     21 C          65.4822   94.0329   10.2416 C.3     1  UNL1        0.0952
     22 C          65.0565   92.7000   10.8087 C.3     1  UNL1        0.1131
     23 N          65.3864   92.5360   12.2628 N.am    1  UNL1       -0.2761
     24 C          65.0277   91.2652   12.9744 C.2     1  UNL1        0.2258
     25 O          65.3576   91.1012   14.4285 O.2     1  UNL1       -0.2749
     26 C          66.0749   93.6427   13.0051 C.3     1  UNL1        0.1131
     27 S          61.8938   87.5079   10.9257 S.O2    1  UNL1        0.0634
     28 O          60.6737   87.0480   11.6670 O.2     1  UNL1       -0.1528
     29 O          62.8719   88.0369    9.9190 O.2     1  UNL1       -0.1528
     30 C          61.0434   87.8497    9.7382 C.ar    1  UNL1        0.1223
     31 C          60.3706   86.7590    8.9588 C.ar    1  UNL1        0.0208
     32 C          59.5201   87.1007    7.7713 C.ar    1  UNL1        0.0128
     33 C          59.3426   88.5331    7.3634 C.ar    1  UNL1        0.0578
     34 CL         58.5865   89.2173    6.2631 Cl      1  UNL1       -0.0822
     35 C          60.0154   89.6239    8.1429 C.ar    1  UNL1        0.0128
     36 C          60.8658   89.2822    9.3303 C.ar    1  UNL1        0.0208
@<TRIPOS>BOND
     1    14    15    1
     2    15    16    2
     3    15    17   am
     4    17    18    1
     5    18    19    1
     6    19    20    1
     7    20    21    1
     8    21    22    1
     9    22    23    1
    10    23    24   am
    11    24    25    2
    12    24    13    1
    13    13    10    1
    14     1    10    1
    15     1     2    1
    16     2     3    1
    17     3     4    1
    18     4     5    1
    19     5     6    1
    20     6     7    1
    21     8     7    1
    22     8     9    1
    23     9    27    1
    24    27    28    2
    25    27    29    2
    26    27    30    1
    27    30    31   ar
    28    31    32   ar
    29    32    33   ar
    30    33    34    1
    31    33    35   ar
    32    35    36   ar
    33    10    11    1
    34    11    12    1
    35    23    26    1
    36    21    17    1
    37    12    10    1
    38    26    18    1
    39     9     1    1
    40    36    30   ar
    41     8     4    1
@<TRIPOS>MOLECULE
*****
 36 41 0 0 0
SMALL
GASTEIGER

@<TRIPOS>ATOM
      1 C          62.9976   90.3641   11.5565 C.3     1  UNL1        0.1095
      2 C          63.1867   91.2377   10.3520 C.3     1  UNL1        0.1597
      3 O          64.2721   92.2729   10.3392 O.3     1  UNL1       -0.3533
      4 C          65.1685   92.4345   11.5309 C.3     1  UNL1        0.1315
      5 C          66.3152   93.3616   11.8060 C.3     1  UNL1        0.0311
      6 C          66.8348   93.0609   13.1806 C.3     1  UNL1        0.0041
      7 C          66.0093   91.9480   13.7551 C.3     1  UNL1        0.0203
      8 C          64.9795   91.5608   12.7355 C.3     1  UNL1        0.1066
      9 N          63.8940   90.5256   12.7483 N.3     1  UNL1       -0.1534
     10 C          61.9121   89.3288   11.5694 C.3     1  UNL1        0.0261
     11 C          60.5393   88.7256   11.5351 C.3     1  UNL1        0.0020
     12 C          60.7075   90.2130   11.4380 C.3     1  UNL1        0.0020
     13 C          62.7398   88.0853   11.7052 C.3     1  UNL1        0.0867
     14 C          62.2756   85.8767    9.7101 C.3     1  UNL1        0.0948
     15 C          62.6228   85.6199   11.1466 C.2     1  UNL1        0.2261
     16 O          62.8399   86.7712   12.0831 O.2     1  UNL1       -0.2749
     17 N          62.7529   84.2115   11.6464 N.am    1  UNL1       -0.2794
     18 C          62.5658   82.9660   10.8318 C.3     1  UNL1        0.0952
     19 C          62.7902   81.7863   11.7307 C.3     1  UNL1        0.0233
     20 C          63.1160   82.3027   13.1007 C.3     1  UNL1        0.0233
     21 C          63.0929   83.8017   13.0487 C.3     1  UNL1        0.0952
     22 C          63.0000   85.2688   12.7051 C.3     1  UNL1        0.1131
     23 N          62.6528   85.5256   11.2686 N.am    1  UNL1       -0.2761
     24 C          62.5227   86.9339   10.7687 C.2     1  UNL1        0.2258
     25 O          62.1755   87.1908    9.3322 O.2     1  UNL1       -0.2749
     26 C          62.4357   84.3743   10.3320 C.3     1  UNL1        0.1131
     27 S          63.7050   89.6520   13.9529 S.O2    1  UNL1        0.0634
     28 O          62.6792   90.6082   14.4854 O.2     1  UNL1       -0.1528
     29 O          64.6545   88.5129   13.7277 O.2     1  UNL1       -0.1528
     30 C          63.5158   88.7784   15.1575 C.ar    1  UNL1        0.1223
     31 C          63.8974   87.3289   15.1001 C.ar    1  UNL1        0.0208
     32 C          63.7083   86.4552   16.3046 C.ar    1  UNL1        0.0128
     33 C          63.1377   87.0311   17.5666 C.ar    1  UNL1        0.0578
     34 CL         62.8212   86.4664   18.9198 Cl      1  UNL1       -0.0822
     35 C          62.7562   88.4807   17.6241 C.ar    1  UNL1        0.0128
     36 C          62.9452   89.3543   16.4195 C.ar    1  UNL1        0.0208
@<TRIPOS>BOND
     1    14    15    1
     2    15    16    2
     3    15    17   am
     4    17    18    1
     5    18    19    1
     6    19    20    1
     7    20    21    1
     8    21    22    1
     9    22    23    1
    10    23    24   am
    11    24    25    2
    12    24    13    1
    13    13    10    1
    14     1    10    1
    15     1     2    1
    16     2     3    1
    17     3     4    1
    18     4     5    1
    19     5     6    1
    20     6     7    1
    21     8     7    1
    22     8     9    1
    23     9    27    1
    24    27    28    2
    25    27    29    2
    26    27    30    1
    27    30    31   ar
    28    31    32   ar
    29    32    33   ar
    30    33    34    1
    31    33    35   ar
    32    35    36   ar
    33    10    11    1
    34    11    12    1
    35    23    26    1
    36    21    17    1
    37    12    10    1
    38    26    18    1
    39     9     1    1
    40    36    30   ar
    41     8     4    1
@<TRIPOS>MOLECULE
*****
 36 41 0 0 0
SMALL
GASTEIGER

@<TRIPOS>ATOM
      1 C          61.1271   89.3787   10.9572 C.3     1  UNL1        0.1095
      2 C          60.4124   90.5541   10.3593 C.3     1  UNL1        0.1597
      3 O          59.6808   90.4047    9.0583 O.3     1  UNL1       -0.3533
      4 C          59.6640   89.0797    8.3553 C.3     1  UNL1        0.1315
      5 C          59.0322   88.6334    7.0701 C.3     1  UNL1        0.0311
      6 C          59.3565   87.1821    6.8738 C.3     1  UNL1        0.0041
      7 C          60.1888   86.7315    8.0375 C.3     1  UNL1        0.0203
      8 C          60.3788   87.9043    8.9532 C.3     1  UNL1        0.1066
      9 N          61.1103   88.0538   10.2541 N.3     1  UNL1       -0.1534
     10 C          61.8587   89.5282   12.2582 C.3     1  UNL1        0.0261
     11 C          62.1003   89.6471   13.7338 C.3     1  UNL1        0.0020
     12 C          60.7022   89.4923   13.2129 C.3     1  UNL1        0.0020
     13 C          63.2691   89.6159   11.7553 C.3     1  UNL1        0.0867
     14 C          64.4674   92.3140   11.1568 C.3     1  UNL1        0.0948
     15 C          64.7341   91.5662   12.4294 C.2     1  UNL1        0.2261
     16 O          64.1015   90.2255   12.6582 O.2     1  UNL1       -0.2749
     17 N          65.6334   92.1591   13.4733 N.am    1  UNL1       -0.2794
     18 C          66.3329   93.4831   13.3856 C.3     1  UNL1        0.0952
     19 C          67.1229   93.6743   14.6463 C.3     1  UNL1        0.0233
     20 C          66.9117   92.4686   15.5131 C.3     1  UNL1        0.0233
     21 C          65.9911   91.5320   14.7882 C.3     1  UNL1        0.0952
     22 C          65.0677   90.8017   13.8432 C.3     1  UNL1        0.1131
     23 N          64.8010   91.5495   12.5705 N.am    1  UNL1       -0.2761
     24 C          63.9017   90.9566   11.5266 C.2     1  UNL1        0.2258
     25 O          63.6350   91.7044   10.2539 O.2     1  UNL1       -0.2749
     26 C          65.4336   92.8902   12.3418 C.3     1  UNL1        0.1131
     27 S          61.8251   86.8784   10.8521 S.O2    1  UNL1        0.0634
     28 O          62.8984   87.0017    9.8115 O.2     1  UNL1       -0.1528
     29 O          60.9567   86.4743   12.0064 O.2     1  UNL1       -0.1528
     30 C          62.5400   85.7030   11.4499 C.ar    1  UNL1        0.1223
     31 C          63.0944   85.7906   12.8409 C.ar    1  UNL1        0.0208
     32 C          63.8093   84.6153   13.4388 C.ar    1  UNL1        0.0128
     33 C          63.9696   83.3523   12.6457 C.ar    1  UNL1        0.0578
     34 CL         64.6082   82.0231   12.9207 Cl      1  UNL1       -0.0822
     35 C          63.4152   83.2646   11.2547 C.ar    1  UNL1        0.0128
     36 C          62.7003   84.4400   10.6568 C.ar    1  UNL1        0.0208
@<TRIPOS>BOND
     1    14    15    1
     2    15    16    2
     3    15    17   am
     4    17    18    1
     5    18    19    1
     6    19    20    1
     7    20    21    1
     8    21    22    1
     9    22    23    1
    10    23    24   am
    11    24    25    2
    12    24    13    1
    13    13    10    1
    14     1    10    1
    15     1     2    1
    16     2     3    1
    17     3     4    1
    18     4     5    1
    19     5     6    1
    20     6     7    1
    21     8     7    1
    22     8     9    1
    23     9    27    1
    24    27    28    2
    25    27    29    2
    26    27    30    1
    27    30    31   ar
    28    31    32   ar
    29    32    33   ar
    30    33    34    1
    31    33    35   ar
    32    35    36   ar
    33    10    11    1
    34    11    12    1
    35    23    26    1
    36    21    17    1
    37    12    10    1
    38    26    18    1
    39     9     1    1
    40    36    30   ar
    41     8     4    1
@<TRIPOS>MOLECULE
*****
 36 41 0 0 0
SMALL
GASTEIGER

@<TRIPOS>ATOM
      1 C          64.4468   90.3367   14.3027 C.3     1  UNL1        0.1095
      2 C          65.5051   91.0763   15.0660 C.3     1  UNL1        0.1597
      3 O          66.1953   92.2533   14.4425 O.3     1  UNL1       -0.3533
      4 C          65.8270   92.6904   13.0557 C.3     1  UNL1        0.1315
      5 C          66.3307   93.8053   12.1878 C.3     1  UNL1        0.0311
      6 C          65.5837   93.7546   10.8881 C.3     1  UNL1        0.0041
      7 C          64.6182   92.6084   10.9527 C.3     1  UNL1        0.0203
      8 C          64.7686   91.9507   12.2924 C.3     1  UNL1        0.1066
      9 N          64.0785   90.7738   12.9159 N.3     1  UNL1       -0.1534
     10 C          63.7567   89.1597   14.9262 C.3     1  UNL1        0.0261
     11 C          62.9427   88.3534   15.8942 C.3     1  UNL1        0.0020
     12 C          63.1603   89.8179   16.1350 C.3     1  UNL1        0.0020
     13 C          64.1133   88.0929   13.9339 C.3     1  UNL1        0.0867
     14 C          65.0280   85.4298   15.0038 C.3     1  UNL1        0.0948
     15 C          64.0963   85.5643   13.8359 C.2     1  UNL1        0.2261
     16 O          63.6839   86.9250   13.3584 O.2     1  UNL1       -0.2749
     17 N          63.5771   84.3379   13.1457 N.am    1  UNL1       -0.2794
     18 C          63.8997   82.9186   13.5085 C.3     1  UNL1        0.0952
     19 C          63.1660   82.0192   12.5584 C.3     1  UNL1        0.0233
     20 C          62.3900   82.8824   11.6085 C.3     1  UNL1        0.0233
     21 C          62.6440   84.3155   11.9714 C.3     1  UNL1        0.0952
     22 C          63.0748   85.6403   12.5533 C.3     1  UNL1        0.1131
     23 N          64.0065   85.5058   13.7211 N.am    1  UNL1       -0.2761
     24 C          64.5258   86.7322   14.4114 C.2     1  UNL1        0.2258
     25 O          65.4575   86.5976   15.5792 O.2     1  UNL1       -0.2749
     26 C          64.4189   84.1450   14.1987 C.3     1  UNL1        0.1131
     27 S          63.0201   90.0341   12.1526 S.O2    1  UNL1        0.0634
     28 O          63.9781   89.8369   11.0153 O.2     1  UNL1       -0.1528
     29 O          61.8345   90.0465   13.0713 O.2     1  UNL1       -0.1528
     30 C          61.9618   89.2944   11.3892 C.ar    1  UNL1        0.1223
     31 C          60.5301   89.3661   11.8310 C.ar    1  UNL1        0.0208
     32 C          59.4717   88.6264   11.0677 C.ar    1  UNL1        0.0128
     33 C          59.8450   87.8150    9.8626 C.ar    1  UNL1        0.0578
     34 CL         59.0702   86.9739    8.8918 Cl      1  UNL1       -0.0822
     35 C          61.2767   87.7433    9.4208 C.ar    1  UNL1        0.0128
     36 C          62.3351   88.4830   10.1841 C.ar    1  UNL1        0.0208
@<TRIPOS>BOND
     1    14    15    1
     2    15    16    2
     3    15    17   am
     4    17    18    1
     5    18    19    1
     6    19    20    1
     7    20    21    1
     8    21    22    1
     9    22    23    1
    10    23    24   am
    11    24    25    2
    12    24    13    1
    13    13    10    1
    14     1    10    1
    15     1     2    1
    16     2     3    1
    17     3     4    1
    18     4     5    1
    19     5     6    1
    20     6     7    1
    21     8     7    1
    22     8     9    1
    23     9    27    1
    24    27    28    2
    25    27    29    2
    26    27    30    1
    27    30    31   ar
    28    31    32   ar
    29    32    33   ar
    30    33    34    1
    31    33    35   ar
    32    35    36   ar
    33    10    11    1
    34    11    12    1
    35    23    26    1
    36    21    17    1
    37    12    10    1
    38    26    18    1
    39     9     1    1
    40    36    30   ar
    41     8     4    1
@<TRIPOS>MOLECULE
*****
 36 41 0 0 0
SMALL
GASTEIGER

@<TRIPOS>ATOM
      1 C          63.2382   88.2143   13.0787 C.3     1  UNL1        0.1095
      2 C          64.0729   87.8533   14.2714 C.3     1  UNL1        0.1597
      3 O          64.4283   86.4194   14.5319 O.3     1  UNL1       -0.3533
      4 C          63.9488   85.3466   13.5996 C.3     1  UNL1        0.1315
      5 C          64.1386   83.8587   13.5993 C.3     1  UNL1        0.0311
      6 C          63.4210   83.3002   12.4063 C.3     1  UNL1        0.0041
      7 C          62.7878   84.4429   11.6693 C.3     1  UNL1        0.0203
      8 C          63.1139   85.7077   12.4068 C.3     1  UNL1        0.1066
      9 N          62.7586   87.1416   12.1464 N.3     1  UNL1       -0.1534
     10 C          62.8828   89.6482   12.8181 C.3     1  UNL1        0.0261
     11 C          62.0662   90.8568   12.4684 C.3     1  UNL1        0.0020
     12 C          61.4314   89.4978   12.4707 C.3     1  UNL1        0.0020
     13 C          64.2108   90.2965   13.0751 C.3     1  UNL1        0.0867
     14 C          64.5602   91.6992   15.7179 C.3     1  UNL1        0.0948
     15 C          65.6587   91.5841   14.7030 C.2     1  UNL1        0.2261
     16 O          65.4109   90.8702   13.4073 O.2     1  UNL1       -0.2749
     17 N          67.0050   92.1830   14.9838 N.am    1  UNL1       -0.2794
     18 C          67.3990   92.9223   16.2281 C.3     1  UNL1        0.0952
     19 C          68.8311   93.3439   16.0828 C.3     1  UNL1        0.0233
     20 C          69.3223   92.8653   14.7488 C.3     1  UNL1        0.0233
     21 C          68.1937   92.1478   14.0695 C.3     1  UNL1        0.0952
     22 C          66.9034   91.4943   13.6366 C.3     1  UNL1        0.1131
     23 N          65.8049   91.6094   14.6516 N.am    1  UNL1       -0.2761
     24 C          64.4586   91.0105   14.3708 C.2     1  UNL1        0.2258
     25 O          63.3602   91.1255   15.3858 O.2     1  UNL1       -0.2749
     26 C          66.0527   92.3233   15.9472 C.3     1  UNL1        0.1131
     27 S          61.9238   87.5026   10.9536 S.O2    1  UNL1        0.0634
     28 O          60.7386   86.8288   11.5791 O.2     1  UNL1       -0.1528
     29 O          62.8718   88.2438   10.0580 O.2     1  UNL1       -0.1528
     30 C          61.0889   87.8637    9.7608 C.ar    1  UNL1        0.1223
     31 C          60.3423   86.7962    9.0172 C.ar    1  UNL1        0.0208
     32 C          59.5074   87.1571    7.8244 C.ar    1  UNL1        0.0128
     33 C          59.4192   88.5856    7.3754 C.ar    1  UNL1        0.0578
     34 CL         58.7010   89.2846    6.2592 Cl      1  UNL1       -0.0822
     35 C          60.1657   89.6531    8.1190 C.ar    1  UNL1        0.0128
     36 C          61.0006   89.2922    9.3118 C.ar    1  UNL1        0.0208
@<TRIPOS>BOND
     1    14    15    1
     2    15    16    2
     3    15    17   am
     4    17    18    1
     5    18    19    1
     6    19    20    1
     7    20    21    1
     8    21    22    1
     9    22    23    1
    10    23    24   am
    11    24    25    2
    12    24    13    1
    13    13    10    1
    14     1    10    1
    15     1     2    1
    16     2     3    1
    17     3     4    1
    18     4     5    1
    19     5     6    1
    20     6     7    1
    21     8     7    1
    22     8     9    1
    23     9    27    1
    24    27    28    2
    25    27    29    2
    26    27    30    1
    27    30    31   ar
    28    31    32   ar
    29    32    33   ar
    30    33    34    1
    31    33    35   ar
    32    35    36   ar
    33    10    11    1
    34    11    12    1
    35    23    26    1
    36    21    17    1
    37    12    10    1
    38    26    18    1
    39     9     1    1
    40    36    30   ar
    41     8     4    1
@<TRIPOS>MOLECULE
*****
 36 41 0 0 0
SMALL
GASTEIGER

@<TRIPOS>ATOM
      1 C          59.8645   93.8758   -0.0513 C.3     1  UNL1        0.1095
      2 C          59.0677   93.3789    1.1183 C.3     1  UNL1        0.1597
      3 O          59.7623   92.7228    2.2747 O.3     1  UNL1       -0.3533
      4 C          61.2538   92.5637    2.2613 C.3     1  UNL1        0.1315
      5 C          62.2079   91.9625    3.2504 C.3     1  UNL1        0.0311
      6 C          63.5944   92.0880    2.6920 C.3     1  UNL1        0.0041
      7 C          63.4972   92.7666    1.3578 C.3     1  UNL1        0.0203
      8 C          62.0506   93.0607    1.0917 C.3     1  UNL1        0.1066
      9 N          61.3559   93.7167   -0.0646 N.3     1  UNL1       -0.1534
     10 C          59.1698   94.5319   -1.2076 C.3     1  UNL1        0.0261
     11 C          58.5045   95.5912   -2.0354 C.3     1  UNL1        0.0020
     12 C          59.0129   95.9208   -0.6632 C.3     1  UNL1        0.0020
     13 C          59.0855   93.3709   -2.1536 C.3     1  UNL1        0.0867
     14 C          56.4505   91.9312   -2.3936 C.3     1  UNL1        0.0948
     15 C          57.2580   92.3601   -3.5827 C.2     1  UNL1        0.2261
     16 O          58.5625   93.0736   -3.3856 O.2     1  UNL1       -0.2749
     17 N          56.7608   92.0753   -4.9690 N.am    1  UNL1       -0.2794
     18 C          55.4820   91.3744   -5.3205 C.3     1  UNL1        0.0952
     19 C          55.3861   91.3075   -6.8159 C.3     1  UNL1        0.0233
     20 C          56.6055   91.9670   -7.3887 C.3     1  UNL1        0.0233
     21 C          57.4551   92.4416   -6.2472 C.3     1  UNL1        0.0952
     22 C          58.0913   92.8015   -4.9262 C.3     1  UNL1        0.1131
     23 N          57.2838   92.3727   -3.7371 N.am    1  UNL1       -0.2761
     24 C          57.7810   92.6574   -2.3508 C.2     1  UNL1        0.2258
     25 O          56.9735   92.2285   -1.1616 O.2     1  UNL1       -0.2749
     26 C          55.9793   91.6591   -3.9342 C.3     1  UNL1        0.1131
     27 S          62.1527   94.2137   -1.2343 S.O2    1  UNL1        0.0634
     28 O          62.3021   95.5481   -0.5656 O.2     1  UNL1       -0.1528
     29 O          62.2006   93.0393   -2.1661 O.2     1  UNL1       -0.1528
     30 C          62.9496   94.7108   -2.4039 C.ar    1  UNL1        0.1223
     31 C          62.4865   94.4264   -3.8020 C.ar    1  UNL1        0.0208
     32 C          63.2833   94.9234   -4.9717 C.ar    1  UNL1        0.0128
     33 C          64.5431   95.7049   -4.7432 C.ar    1  UNL1        0.0578
     34 CL         65.5569   96.3361   -5.6509 Cl      1  UNL1       -0.0822
     35 C          65.0061   95.9893   -3.3451 C.ar    1  UNL1        0.0128
     36 C          64.2093   95.4923   -2.1754 C.ar    1  UNL1        0.0208
@<TRIPOS>BOND
     1    14    15    1
     2    15    16    2
     3    15    17   am
     4    17    18    1
     5    18    19    1
     6    19    20    1
     7    20    21    1
     8    21    22    1
     9    22    23    1
    10    23    24   am
    11    24    25    2
    12    24    13    1
    13    13    10    1
    14     1    10    1
    15     1     2    1
    16     2     3    1
    17     3     4    1
    18     4     5    1
    19     5     6    1
    20     6     7    1
    21     8     7    1
    22     8     9    1
    23     9    27    1
    24    27    28    2
    25    27    29    2
    26    27    30    1
    27    30    31   ar
    28    31    32   ar
    29    32    33   ar
    30    33    34    1
    31    33    35   ar
    32    35    36   ar
    33    10    11    1
    34    11    12    1
    35    23    26    1
    36    21    17    1
    37    12    10    1
    38    26    18    1
    39     9     1    1
    40    36    30   ar
    41     8     4    1
@<TRIPOS>MOLECULE
*****
 36 41 0 0 0
SMALL
GASTEIGER

@<TRIPOS>ATOM
      1 C          63.0498   89.7030   14.2316 C.3     1  UNL1        0.1095
      2 C          61.8029   89.0624   13.6983 C.3     1  UNL1        0.1597
      3 O          61.3930   89.2903   12.2734 O.3     1  UNL1       -0.3533
      4 C          62.2303   90.1588   11.3820 C.3     1  UNL1        0.1315
      5 C          62.0796   90.5628    9.9453 C.3     1  UNL1        0.0311
      6 C          63.2336   91.4531    9.5908 C.3     1  UNL1        0.0041
      7 C          64.0974   91.5993   10.8083 C.3     1  UNL1        0.0203
      8 C          63.4773   90.7994   11.9154 C.3     1  UNL1        0.1066
      9 N          63.8871   90.5715   13.3402 N.3     1  UNL1       -0.1534
     10 C          63.4597   89.4752   15.6565 C.3     1  UNL1        0.0261
     11 C          63.6413   89.7135   17.1263 C.3     1  UNL1        0.0020
     12 C          62.9449   90.7383   16.2807 C.3     1  UNL1        0.0020
     13 C          64.1168   88.1330   15.5271 C.3     1  UNL1        0.0867
     14 C          62.7463   85.7691   16.7951 C.3     1  UNL1        0.0948
     15 C          63.3766   85.7149   15.4350 C.2     1  UNL1        0.2261
     16 O          64.0420   86.9335   14.8675 O.2     1  UNL1       -0.2749
     17 N          63.3413   84.4418   14.6423 N.am    1  UNL1       -0.2794
     18 C          62.7153   83.1497   15.0768 C.3     1  UNL1        0.0952
     19 C          62.9130   82.1469   13.9790 C.3     1  UNL1        0.0233
     20 C          63.6610   82.8190   12.8661 C.3     1  UNL1        0.0233
     21 C          63.9258   84.2375   13.2761 C.3     1  UNL1        0.0952
     22 C          64.0463   85.5871   13.9418 C.3     1  UNL1        0.1131
     23 N          63.4161   85.6414   15.3019 N.am    1  UNL1       -0.2761
     24 C          63.4514   86.9144   16.0946 C.2     1  UNL1        0.2258
     25 O          62.8212   86.9687   17.4547 O.2     1  UNL1       -0.2749
     26 C          62.7507   84.4228   15.8694 C.3     1  UNL1        0.1131
     27 S          65.1342   91.2121   13.8736 S.O2    1  UNL1        0.0634
     28 O          64.6410   92.5529   13.4162 O.2     1  UNL1       -0.1528
     29 O          65.9143   90.0663   14.4464 O.2     1  UNL1       -0.1528
     30 C          66.3812   91.8528   14.4070 C.ar    1  UNL1        0.1223
     31 C          67.6677   91.7397   13.6440 C.ar    1  UNL1        0.0208
     32 C          68.9148   92.3804   14.1773 C.ar    1  UNL1        0.0128
     33 C          68.8752   93.1342   15.4735 C.ar    1  UNL1        0.0578
     34 CL         69.9000   93.8769   16.2787 Cl      1  UNL1       -0.0822
     35 C          67.5887   93.2473   16.2365 C.ar    1  UNL1        0.0128
     36 C          66.3417   92.6066   15.7032 C.ar    1  UNL1        0.0208
@<TRIPOS>BOND
     1    14    15    1
     2    15    16    2
     3    15    17   am
     4    17    18    1
     5    18    19    1
     6    19    20    1
     7    20    21    1
     8    21    22    1
     9    22    23    1
    10    23    24   am
    11    24    25    2
    12    24    13    1
    13    13    10    1
    14     1    10    1
    15     1     2    1
    16     2     3    1
    17     3     4    1
    18     4     5    1
    19     5     6    1
    20     6     7    1
    21     8     7    1
    22     8     9    1
    23     9    27    1
    24    27    28    2
    25    27    29    2
    26    27    30    1
    27    30    31   ar
    28    31    32   ar
    29    32    33   ar
    30    33    34    1
    31    33    35   ar
    32    35    36   ar
    33    10    11    1
    34    11    12    1
    35    23    26    1
    36    21    17    1
    37    12    10    1
    38    26    18    1
    39     9     1    1
    40    36    30   ar
    41     8     4    1
@<TRIPOS>MOLECULE
*****
 36 41 0 0 0
SMALL
GASTEIGER

@<TRIPOS>ATOM
      1 C          61.2126   89.4282   11.1274 C.3     1  UNL1        0.1095
      2 C          60.5343   90.6217   10.5230 C.3     1  UNL1        0.1597
      3 O          59.8245   90.4948    9.2076 O.3     1  UNL1       -0.3533
      4 C          59.7932   89.1743    8.4967 C.3     1  UNL1        0.1315
      5 C          59.1766   88.7484    7.1973 C.3     1  UNL1        0.0311
      6 C          59.4739   87.2917    6.9987 C.3     1  UNL1        0.0041
      7 C          60.2742   86.8172    8.1753 C.3     1  UNL1        0.0203
      8 C          60.4715   87.9808    9.1011 C.3     1  UNL1        0.1066
      9 N          61.1813   88.1078   10.4165 N.3     1  UNL1       -0.1534
     10 C          61.9224   89.5551   12.4428 C.3     1  UNL1        0.0261
     11 C          62.1432   89.6156   13.9252 C.3     1  UNL1        0.0020
     12 C          60.7610   89.4079   13.3807 C.3     1  UNL1        0.0020
     13 C          63.3303   89.7464   11.9617 C.3     1  UNL1        0.0867
     14 C          65.2397   91.3300   13.6705 C.3     1  UNL1        0.0948
     15 C          64.8229   91.7624   12.2960 C.2     1  UNL1        0.2261
     16 O          63.8672   90.9215   11.5028 O.2     1  UNL1       -0.2749
     17 N          65.3620   93.0358   11.7147 N.am    1  UNL1       -0.2794
     18 C          66.3200   93.9751   12.3855 C.3     1  UNL1        0.0952
     19 C          66.5877   95.1132   11.4459 C.3     1  UNL1        0.0233
     20 C          65.7953   94.8774   10.1944 C.3     1  UNL1        0.0233
     21 C          65.0377   93.5934   10.3604 C.3     1  UNL1        0.0952
     22 C          64.4083   92.2932   10.7991 C.3     1  UNL1        0.1131
     23 N          64.8251   91.8608   12.1736 N.am    1  UNL1       -0.2761
     24 C          64.2860   90.5874   12.7549 C.2     1  UNL1        0.2258
     25 O          64.7028   90.1550   14.1294 O.2     1  UNL1       -0.2749
     26 C          65.7809   92.7017   12.9668 C.3     1  UNL1        0.1131
     27 S          61.8597   86.9143   11.0209 S.O2    1  UNL1        0.0634
     28 O          63.0258   87.1096   10.0979 O.2     1  UNL1       -0.1528
     29 O          60.8924   86.4359   12.0628 O.2     1  UNL1       -0.1528
     30 C          62.5381   85.7208   11.6253 C.ar    1  UNL1        0.1223
     31 C          63.2740   85.8550   12.9255 C.ar    1  UNL1        0.0208
     32 C          63.9525   84.6615   13.5300 C.ar    1  UNL1        0.0128
     33 C          63.8951   83.3339   12.8342 C.ar    1  UNL1        0.0578
     34 CL         64.4426   81.9716   13.1419 Cl      1  UNL1       -0.0822
     35 C          63.1592   83.1997   11.5341 C.ar    1  UNL1        0.0128
     36 C          62.4807   84.3931   10.9296 C.ar    1  UNL1        0.0208
@<TRIPOS>BOND
     1    14    15    1
     2    15    16    2
     3    15    17   am
     4    17    18    1
     5    18    19    1
     6    19    20    1
     7    20    21    1
     8    21    22    1
     9    22    23    1
    10    23    24   am
    11    24    25    2
    12    24    13    1
    13    13    10    1
    14     1    10    1
    15     1     2    1
    16     2     3    1
    17     3     4    1
    18     4     5    1
    19     5     6    1
    20     6     7    1
    21     8     7    1
    22     8     9    1
    23     9    27    1
    24    27    28    2
    25    27    29    2
    26    27    30    1
    27    30    31   ar
    28    31    32   ar
    29    32    33   ar
    30    33    34    1
    31    33    35   ar
    32    35    36   ar
    33    10    11    1
    34    11    12    1
    35    23    26    1
    36    21    17    1
    37    12    10    1
    38    26    18    1
    39     9     1    1
    40    36    30   ar
    41     8     4    1
@<TRIPOS>MOLECULE
*****
 36 41 0 0 0
SMALL
GASTEIGER

@<TRIPOS>ATOM
      1 C          64.8753   91.5105   12.8217 C.3     1  UNL1        0.1095
      2 C          64.5907   90.5869   13.9687 C.3     1  UNL1        0.1597
      3 O          65.4150   90.6682   15.2194 O.3     1  UNL1       -0.3533
      4 C          66.5237   91.6731   15.3229 C.3     1  UNL1        0.1315
      5 C          67.4972   91.9841   16.4209 C.3     1  UNL1        0.0311
      6 C          68.3833   93.1000   15.9524 C.3     1  UNL1        0.0041
      7 C          67.9576   93.4787   14.5648 C.3     1  UNL1        0.0203
      8 C          66.8082   92.5968   14.1757 C.3     1  UNL1        0.1066
      9 N          65.9840   92.5155   12.9251 N.3     1  UNL1       -0.1534
     10 C          64.0510   91.4293   11.5710 C.3     1  UNL1        0.0261
     11 C          63.6416   91.6058   10.1388 C.3     1  UNL1        0.0020
     12 C          64.9589   92.1434   10.6140 C.3     1  UNL1        0.0020
     13 C          62.8570   90.6869   12.0937 C.3     1  UNL1        0.0867
     14 C          62.6839   87.7051   11.7026 C.3     1  UNL1        0.0948
     15 C          61.9049   88.6839   10.8749 C.2     1  UNL1        0.2261
     16 O          62.0422   90.1561   11.1273 O.2     1  UNL1       -0.2749
     17 N          60.9885   88.1904    9.7947 N.am    1  UNL1       -0.2794
     18 C          60.7496   86.7555    9.4285 C.3     1  UNL1        0.0952
     19 C          59.7636   86.7236    8.2986 C.3     1  UNL1        0.0233
     20 C          59.3931   88.1386    7.9664 C.3     1  UNL1        0.0233
     21 C          60.1502   89.0452    8.8911 C.3     1  UNL1        0.0952
     22 C          61.0243   89.7000    9.9333 C.3     1  UNL1        0.1131
     23 N          61.8033   88.7212   10.7610 N.am    1  UNL1       -0.2761
     24 C          62.7197   89.2148   11.8413 C.2     1  UNL1        0.2258
     25 O          63.4987   88.2360   12.6690 O.2     1  UNL1       -0.2749
     26 C          61.6660   87.2491   10.5086 C.3     1  UNL1        0.1131
     27 S          66.2685   93.4391   11.7780 S.O2    1  UNL1        0.0634
     28 O          65.3834   94.4802   12.3967 O.2     1  UNL1       -0.1528
     29 O          67.1962   92.6526   10.9001 O.2     1  UNL1       -0.1528
     30 C          66.5530   94.3629   10.6309 C.ar    1  UNL1        0.1223
     31 C          65.9228   95.7234   10.5895 C.ar    1  UNL1        0.0208
     32 C          66.2072   96.6472    9.4425 C.ar    1  UNL1        0.0128
     33 C          67.1218   96.2104    8.3368 C.ar    1  UNL1        0.0578
     34 CL         67.6137   96.8556    7.0750 Cl      1  UNL1       -0.0822
     35 C          67.7521   94.8498    8.3781 C.ar    1  UNL1        0.0128
     36 C          67.4677   93.9260    9.5252 C.ar    1  UNL1        0.0208
@<TRIPOS>BOND
     1    14    15    1
     2    15    16    2
     3    15    17   am
     4    17    18    1
     5    18    19    1
     6    19    20    1
     7    20    21    1
     8    21    22    1
     9    22    23    1
    10    23    24   am
    11    24    25    2
    12    24    13    1
    13    13    10    1
    14     1    10    1
    15     1     2    1
    16     2     3    1
    17     3     4    1
    18     4     5    1
    19     5     6    1
    20     6     7    1
    21     8     7    1
    22     8     9    1
    23     9    27    1
    24    27    28    2
    25    27    29    2
    26    27    30    1
    27    30    31   ar
    28    31    32   ar
    29    32    33   ar
    30    33    34    1
    31    33    35   ar
    32    35    36   ar
    33    10    11    1
    34    11    12    1
    35    23    26    1
    36    21    17    1
    37    12    10    1
    38    26    18    1
    39     9     1    1
    40    36    30   ar
    41     8     4    1
