@<TRIPOS>MOLECULE
*****
 39 42 0 0 0
SMALL
GASTEIGER

@<TRIPOS>ATOM
      1 C          63.2240   83.3119   12.0495 C.ar    1  UNL1        0.1432
      2 C          63.9599   84.0785   13.1080 C.ar    1  UNL1        0.0691
      3 C          63.7077   83.7867   14.5575 C.ar    1  UNL1        0.1368
      4 N          62.7195   82.7282   14.9486 N.ar    1  UNL1       -0.2088
      5 C          61.9834   81.9615   13.8900 C.ar    1  UNL1        0.2012
      6 N          62.2357   82.2533   12.4404 N.ar    1  UNL1       -0.2085
      7 N          62.1867   85.8477   10.8273 N.am    1  UNL1       -0.2663
      8 C          62.9576   84.8717    9.9888 C.2     1  UNL1        0.3126
      9 O          63.2098   85.1635    8.5393 O.2     1  UNL1       -0.2519
     10 N          63.4763   83.6037   10.5999 N.am    1  UNL1       -0.2261
     11 C          64.2472   82.6277    9.7615 C.3     1  UNL1        0.1231
     12 H          62.0211   85.6561   11.7786 H       1  UNL1        0.1565
     13 C          61.6280   89.7113   10.1128 C.ar    1  UNL1        0.1535
     14 C          60.6307   89.6514    8.9941 C.ar    1  UNL1        0.0756
     15 C          60.1520   88.3236    8.4864 C.ar    1  UNL1        0.1535
     16 C          60.6706   87.0557    9.0974 C.ar    1  UNL1        0.1060
     17 CL         60.1919   85.7279    8.5897 Cl      1  UNL1       -0.0777
     18 C          61.6680   87.1156   10.2162 C.ar    1  UNL1        0.0788
     19 C          62.1467   88.4434   10.7239 C.ar    1  UNL1        0.1060
     20 CL         63.1441   88.5033   11.8427 Cl      1  UNL1       -0.0777
     21 C          63.3657   91.6423   10.0719 C.3     1  UNL1        0.2525
     22 O          62.1067   91.0391   10.6206 O.3     1  UNL1       -0.4704
     23 O          59.1546   88.2637    7.3675 O.3     1  UNL1       -0.4704
     24 C          59.0843   89.3773    6.3650 C.3     1  UNL1        0.2525
     25 N          64.4436   84.5534   15.6161 N.pl3   1  UNL1       -0.2978
     26 H          65.2343   84.1586   16.0498 H       1  UNL1        0.1536
     27 C          63.9748   85.9217   16.0138 C.ar    1  UNL1        0.0506
     28 C          63.0549   86.0877   17.1869 C.ar    1  UNL1        0.0147
     29 C          62.5861   87.4559   17.5847 C.ar    1  UNL1        0.0025
     30 C          63.0372   88.6580   16.8093 C.ar    1  UNL1        0.0146
     31 C          63.9572   88.4920   15.6362 C.ar    1  UNL1        0.0492
     32 C          64.4260   87.1238   15.2384 C.ar    1  UNL1        0.0291
     33 N          64.4083   89.6943   14.8608 N.pl3   1  UNL1       -0.3046
     34 C          63.4150   90.4924   14.0695 C.3     1  UNL1        0.1081
     35 C          63.8661   91.6947   13.2941 C.3     1  UNL1        0.0938
     36 N          65.3106   92.0987   13.3101 N.3     1  UNL1       -0.2686
     37 C          65.7617   93.3009   12.5348 C.3     1  UNL1        0.0897
     38 C          66.3039   91.3005   14.1015 C.3     1  UNL1        0.0938
     39 C          65.8527   90.0983   14.8768 C.3     1  UNL1        0.1081
@<TRIPOS>BOND
     1    21    22    1
     2    22    13    1
     3    13    14   ar
     4    14    15   ar
     5    15    23    1
     6    23    24    1
     7    15    16   ar
     8    16    17    1
     9    16    18   ar
    10    18     7    1
    11     7     8   am
    12     8     9    2
    13     8    10   am
    14    10    11    1
    15    10     1    1
    16     1     2   ar
    17     2     3   ar
    18     3    25    1
    19    25    27    1
    20    27    28   ar
    21    28    29   ar
    22    29    30   ar
    23    30    31   ar
    24    31    33    1
    25    33    34    1
    26    34    35    1
    27    35    36    1
    28    36    37    1
    29    36    38    1
    30    38    39    1
    31    31    32   ar
    32     3     4   ar
    33     4     5   ar
    34     5     6   ar
    35    18    19   ar
    36    19    20    1
    37    19    13   ar
    38     6     1   ar
    39    32    27   ar
    40    39    33    1
    41     7    12    1
    42    25    26    1
@<TRIPOS>MOLECULE
*****
 39 42 0 0 0
SMALL
GASTEIGER

@<TRIPOS>ATOM
      1 C          63.2426   83.2917   12.0577 C.ar    1  UNL1        0.1432
      2 C          63.9744   84.0624   13.1162 C.ar    1  UNL1        0.0691
      3 C          63.7230   83.7699   14.5658 C.ar    1  UNL1        0.1368
      4 N          62.7398   82.7068   14.9568 N.ar    1  UNL1       -0.2088
      5 C          62.0080   81.9360   13.8983 C.ar    1  UNL1        0.2012
      6 N          62.2594   82.2285   12.4487 N.ar    1  UNL1       -0.2085
      7 N          62.2011   85.8262   10.8363 N.am    1  UNL1       -0.2663
      8 C          62.9732   84.8515    9.9974 C.2     1  UNL1        0.3126
      9 O          63.2246   85.1440    8.5479 O.2     1  UNL1       -0.2519
     10 N          63.4940   83.5842   10.6081 N.am    1  UNL1       -0.2261
     11 C          64.2662   82.6095    9.7693 C.3     1  UNL1        0.1231
     12 H          62.0361   85.6342   11.7877 H       1  UNL1        0.1565
     13 C          60.1594   88.2994    8.4986 C.ar    1  UNL1        0.1535
     14 C          60.6387   89.6278    9.0041 C.ar    1  UNL1        0.0756
     15 C          61.6388   89.6890   10.1204 C.ar    1  UNL1        0.1535
     16 C          62.1596   88.4218   10.7311 C.ar    1  UNL1        0.1060
     17 CL         63.1596   88.4830   11.8474 Cl      1  UNL1       -0.0777
     18 C          61.6803   87.0934   10.2256 C.ar    1  UNL1        0.0788
     19 C          60.6802   87.0322    9.1093 C.ar    1  UNL1        0.1060
     20 CL         60.2009   85.7038    8.6037 Cl      1  UNL1       -0.0777
     21 C          59.0730   89.3600    6.3903 C.3     1  UNL1        0.2525
     22 O          59.1593   88.2382    7.3823 O.3     1  UNL1       -0.4704
     23 O          62.1180   91.0175   10.6260 O.3     1  UNL1       -0.4704
     24 C          63.3590   91.6348   10.0526 C.3     1  UNL1        0.2525
     25 N          64.4548   84.5406   15.6243 N.pl3   1  UNL1       -0.2978
     26 H          65.2464   84.1493   16.0595 H       1  UNL1        0.1536
     27 C          63.9804   85.9077   16.0197 C.ar    1  UNL1        0.0506
     28 C          63.0588   86.0718   17.1918 C.ar    1  UNL1        0.0147
     29 C          62.5845   87.4388   17.5872 C.ar    1  UNL1        0.0025
     30 C          63.0318   88.6416   16.8106 C.ar    1  UNL1        0.0146
     31 C          63.9534   88.4774   15.6386 C.ar    1  UNL1        0.0492
     32 C          64.4277   87.1105   15.2431 C.ar    1  UNL1        0.0291
     33 N          64.4007   89.6803   14.8620 N.pl3   1  UNL1       -0.3046
     34 C          63.4048   90.4746   14.0700 C.3     1  UNL1        0.1081
     35 C          63.8521   91.6775   13.2934 C.3     1  UNL1        0.0938
     36 N          65.2953   92.0861   13.3088 N.3     1  UNL1       -0.2686
     37 C          65.7426   93.2889   12.5322 C.3     1  UNL1        0.0897
     38 C          66.2912   91.2917   14.1008 C.3     1  UNL1        0.0938
     39 C          65.8439   90.0889   14.8773 C.3     1  UNL1        0.1081
@<TRIPOS>BOND
     1    21    22    1
     2    22    13    1
     3    13    14   ar
     4    14    15   ar
     5    15    23    1
     6    23    24    1
     7    15    16   ar
     8    16    17    1
     9    16    18   ar
    10    18     7    1
    11     7     8   am
    12     8     9    2
    13     8    10   am
    14    10    11    1
    15    10     1    1
    16     1     2   ar
    17     2     3   ar
    18     3    25    1
    19    25    27    1
    20    27    28   ar
    21    28    29   ar
    22    29    30   ar
    23    30    31   ar
    24    31    33    1
    25    33    34    1
    26    34    35    1
    27    35    36    1
    28    36    37    1
    29    36    38    1
    30    38    39    1
    31    31    32   ar
    32     3     4   ar
    33     4     5   ar
    34     5     6   ar
    35    18    19   ar
    36    19    20    1
    37    19    13   ar
    38     6     1   ar
    39    32    27   ar
    40    39    33    1
    41     7    12    1
    42    25    26    1
@<TRIPOS>MOLECULE
*****
 39 42 0 0 0
SMALL
GASTEIGER

@<TRIPOS>ATOM
      1 C          60.4121   87.7455   10.1715 C.ar    1  UNL1        0.1432
      2 C          61.6011   86.8314   10.1464 C.ar    1  UNL1        0.0691
      3 C          61.8630   85.9744    8.9436 C.ar    1  UNL1        0.1368
      4 N          60.9359   86.0313    7.7658 N.ar    1  UNL1       -0.2088
      5 C          59.7468   86.9454    7.7909 C.ar    1  UNL1        0.2012
      6 N          59.4849   87.8025    8.9937 N.ar    1  UNL1       -0.2085
      7 N          62.5433   89.5965   11.1872 N.am    1  UNL1       -0.2663
      8 C          61.2158   89.5281   11.8822 C.2     1  UNL1        0.3126
      9 O          60.9539   90.3852   13.0850 O.2     1  UNL1       -0.2519
     10 N          60.1502   88.6025   11.3743 N.am    1  UNL1       -0.2261
     11 C          58.8227   88.5341   12.0693 C.3     1  UNL1        0.1231
     12 H          62.7152   89.0340   10.3978 H       1  UNL1        0.1565
     13 C          65.0897   92.6341   11.3844 C.ar    1  UNL1        0.1535
     14 C          65.7401   92.3731   12.7106 C.ar    1  UNL1        0.0756
     15 C          65.3249   91.1866   13.5290 C.ar    1  UNL1        0.1535
     16 C          64.2593   90.2611   13.0213 C.ar    1  UNL1        0.1060
     17 CL         63.8441   89.0746   13.8397 Cl      1  UNL1       -0.0777
     18 C          63.6089   90.5221   11.6951 C.ar    1  UNL1        0.0788
     19 C          64.0241   91.7086   10.8767 C.ar    1  UNL1        0.1060
     20 CL         63.3737   91.9696    9.5504 Cl      1  UNL1       -0.0777
     21 C          66.1052   95.0209   11.2360 C.3     1  UNL1        0.2525
     22 O          65.5049   93.8206   10.5660 O.3     1  UNL1       -0.4704
     23 O          65.9754   90.9256   14.8553 O.3     1  UNL1       -0.4704
     24 C          67.2096   91.6827   15.2472 C.3     1  UNL1        0.2525
     25 N          63.0521   85.0603    8.9185 N.pl3   1  UNL1       -0.2978
     26 H          63.5820   84.9645    8.0943 H       1  UNL1        0.1536
     27 C          63.4338   84.2923   10.1492 C.ar    1  UNL1        0.0506
     28 C          64.0378   82.9251   10.0227 C.ar    1  UNL1        0.0147
     29 C          64.4195   82.1571   11.2533 C.ar    1  UNL1        0.0025
     30 C          64.1972   82.7562   12.6103 C.ar    1  UNL1        0.0146
     31 C          63.5931   84.1233   12.7368 C.ar    1  UNL1        0.0492
     32 C          63.2114   84.8914   11.5062 C.ar    1  UNL1        0.0291
     33 N          63.3708   84.7224   14.0939 N.pl3   1  UNL1       -0.3046
     34 C          62.2479   84.2283   14.9570 C.3     1  UNL1        0.1081
     35 C          62.0256   84.8274   16.3142 C.3     1  UNL1        0.0938
     36 N          62.9262   85.9206   16.8081 N.3     1  UNL1       -0.2686
     37 C          62.7039   86.5197   18.1651 C.3     1  UNL1        0.0897
     38 C          64.0491   86.4147   15.9449 C.3     1  UNL1        0.0938
     39 C          64.2714   85.8156   14.5878 C.3     1  UNL1        0.1081
@<TRIPOS>BOND
     1    21    22    1
     2    22    13    1
     3    13    14   ar
     4    14    15   ar
     5    15    23    1
     6    23    24    1
     7    15    16   ar
     8    16    17    1
     9    16    18   ar
    10    18     7    1
    11     7     8   am
    12     8     9    2
    13     8    10   am
    14    10    11    1
    15    10     1    1
    16     1     2   ar
    17     2     3   ar
    18     3    25    1
    19    25    27    1
    20    27    28   ar
    21    28    29   ar
    22    29    30   ar
    23    30    31   ar
    24    31    33    1
    25    33    34    1
    26    34    35    1
    27    35    36    1
    28    36    37    1
    29    36    38    1
    30    38    39    1
    31    31    32   ar
    32     3     4   ar
    33     4     5   ar
    34     5     6   ar
    35    18    19   ar
    36    19    20    1
    37    19    13   ar
    38     6     1   ar
    39    32    27   ar
    40    39    33    1
    41     7    12    1
    42    25    26    1
@<TRIPOS>MOLECULE
*****
 39 42 0 0 0
SMALL
GASTEIGER

@<TRIPOS>ATOM
      1 C          60.4039   87.7429   10.1960 C.ar    1  UNL1        0.1432
      2 C          61.5794   86.8121   10.1555 C.ar    1  UNL1        0.0691
      3 C          61.8269   85.9689    8.9399 C.ar    1  UNL1        0.1368
      4 N          60.8989   86.0565    7.7648 N.ar    1  UNL1       -0.2088
      5 C          59.7233   86.9873    7.8052 C.ar    1  UNL1        0.2012
      6 N          59.4758   87.8306    9.0208 N.ar    1  UNL1       -0.2085
      7 N          62.5440   89.5889   11.2022 N.am    1  UNL1       -0.2663
      8 C          61.2265   89.5092   11.9147 C.2     1  UNL1        0.3126
      9 O          60.9790   90.3524   13.1303 O.2     1  UNL1       -0.2519
     10 N          60.1564   88.5862   11.4116 N.am    1  UNL1       -0.2261
     11 C          58.8389   88.5064   12.1241 C.3     1  UNL1        0.1231
     12 H          62.7065   89.0354   10.4043 H       1  UNL1        0.1565
     13 C          65.3411   91.1712   13.5309 C.ar    1  UNL1        0.1535
     14 C          65.7543   92.3577   12.7114 C.ar    1  UNL1        0.0756
     15 C          65.0974   92.6212   11.3889 C.ar    1  UNL1        0.1535
     16 C          64.0274   91.6983   10.8858 C.ar    1  UNL1        0.1060
     17 CL         63.3705   91.9619    9.5633 Cl      1  UNL1       -0.0777
     18 C          63.6142   90.5119   11.7052 C.ar    1  UNL1        0.0788
     19 C          64.2710   90.2483   13.0278 C.ar    1  UNL1        0.1060
     20 CL         63.8578   89.0618   13.8472 Cl      1  UNL1       -0.0777
     21 C          67.2475   91.6467   15.2307 C.3     1  UNL1        0.2525
     22 O          65.9979   90.9077   14.8534 O.3     1  UNL1       -0.4704
     23 O          65.5107   93.8078   10.5694 O.3     1  UNL1       -0.4704
     24 C          66.1120   95.0083   11.2382 C.3     1  UNL1        0.2525
     25 N          63.0024   85.0381    8.8995 N.pl3   1  UNL1       -0.2978
     26 H          63.5149   84.9282    8.0661 H       1  UNL1        0.1536
     27 C          63.3972   84.2745   10.1288 C.ar    1  UNL1        0.0506
     28 C          64.0054   82.9094   10.0008 C.ar    1  UNL1        0.0147
     29 C          64.4002   82.1459   11.2301 C.ar    1  UNL1        0.0025
     30 C          64.1867   82.7475   12.5874 C.ar    1  UNL1        0.0146
     31 C          63.5785   84.1127   12.7155 C.ar    1  UNL1        0.0492
     32 C          63.1837   84.8762   11.4862 C.ar    1  UNL1        0.0291
     33 N          63.3650   84.7143   14.0729 N.pl3   1  UNL1       -0.3046
     34 C          64.2856   85.7891   14.5701 C.3     1  UNL1        0.1081
     35 C          64.0721   86.3907   15.9276 C.3     1  UNL1        0.0938
     36 N          62.9380   85.9175   16.7877 N.3     1  UNL1       -0.2686
     37 C          62.7245   86.5190   18.1450 C.3     1  UNL1        0.0897
     38 C          62.0173   84.8426   16.2904 C.3     1  UNL1        0.0938
     39 C          62.2308   84.2411   14.9330 C.3     1  UNL1        0.1081
@<TRIPOS>BOND
     1    21    22    1
     2    22    13    1
     3    13    14   ar
     4    14    15   ar
     5    15    23    1
     6    23    24    1
     7    15    16   ar
     8    16    17    1
     9    16    18   ar
    10    18     7    1
    11     7     8   am
    12     8     9    2
    13     8    10   am
    14    10    11    1
    15    10     1    1
    16     1     2   ar
    17     2     3   ar
    18     3    25    1
    19    25    27    1
    20    27    28   ar
    21    28    29   ar
    22    29    30   ar
    23    30    31   ar
    24    31    33    1
    25    33    34    1
    26    34    35    1
    27    35    36    1
    28    36    37    1
    29    36    38    1
    30    38    39    1
    31    31    32   ar
    32     3     4   ar
    33     4     5   ar
    34     5     6   ar
    35    18    19   ar
    36    19    20    1
    37    19    13   ar
    38     6     1   ar
    39    32    27   ar
    40    39    33    1
    41     7    12    1
    42    25    26    1
@<TRIPOS>MOLECULE
*****
 39 42 0 0 0
SMALL
GASTEIGER

@<TRIPOS>ATOM
      1 C          63.5713   86.3621   14.3913 C.ar    1  UNL1        0.1432
      2 C          63.6161   87.6633   13.6464 C.ar    1  UNL1        0.0691
      3 C          63.5941   88.9600   14.3999 C.ar    1  UNL1        0.1368
      4 N          63.5273   88.9557   15.8984 N.ar    1  UNL1       -0.2088
      5 C          63.4826   87.6545   16.6434 C.ar    1  UNL1        0.2012
      6 N          63.5046   86.3577   15.8899 N.ar    1  UNL1       -0.2085
      7 N          62.4545   86.2241   11.6103 N.am    1  UNL1       -0.2663
      8 C          63.0349   84.9963   12.2472 C.2     1  UNL1        0.3126
      9 O          63.0569   83.6995   11.4937 O.2     1  UNL1       -0.2519
     10 N          63.5934   85.0653   13.6377 N.am    1  UNL1       -0.2261
     11 C          64.1738   83.8375   14.2746 C.3     1  UNL1        0.1231
     12 H          62.4401   87.0752   12.1049 H       1  UNL1        0.1565
     13 C          62.0243   85.2557    7.7858 C.ar    1  UNL1        0.1535
     14 C          60.7794   86.0171    7.4389 C.ar    1  UNL1        0.0756
     15 C          60.0928   86.8475    8.4825 C.ar    1  UNL1        0.1535
     16 C          60.6512   86.9165    9.8729 C.ar    1  UNL1        0.1060
     17 CL         59.9646   87.7469   10.9165 Cl      1  UNL1       -0.0777
     18 C          61.8961   86.1551   10.2198 C.ar    1  UNL1        0.0788
     19 C          62.5827   85.3247    9.1762 C.ar    1  UNL1        0.1060
     20 CL         63.8277   84.5633    9.5232 Cl      1  UNL1       -0.0777
     21 C          62.0288   84.1492    5.4351 C.3     1  UNL1        0.2525
     22 O          62.7109   84.4253    6.7422 O.3     1  UNL1       -0.4704
     23 O          58.8478   87.6089    8.1355 O.3     1  UNL1       -0.4704
     24 C          58.9409   88.8734    7.3341 C.3     1  UNL1        0.2525
     25 N          63.6388   90.2612   13.6550 N.pl3   1  UNL1       -0.2978
     26 H          62.8331   90.5947   13.1980 H       1  UNL1        0.1536
     27 C          64.9111   91.0542   13.6063 C.ar    1  UNL1        0.0506
     28 C          65.9655   90.8454   14.6526 C.ar    1  UNL1        0.0147
     29 C          67.2378   91.6384   14.6039 C.ar    1  UNL1        0.0025
     30 C          67.4557   92.6401   13.5089 C.ar    1  UNL1        0.0146
     31 C          66.4014   92.8489   12.4627 C.ar    1  UNL1        0.0492
     32 C          65.1291   92.0560   12.5113 C.ar    1  UNL1        0.0291
     33 N          66.6194   93.8507   11.3677 N.pl3   1  UNL1       -0.3046
     34 C          66.1898   95.2752   11.5580 C.3     1  UNL1        0.1081
     35 C          66.4078   96.2770   10.4630 C.3     1  UNL1        0.0938
     36 N          67.0553   95.8543    9.1777 N.3     1  UNL1       -0.2686
     37 C          67.2733   96.8560    8.0828 C.3     1  UNL1        0.0897
     38 C          67.4849   94.4297    8.9874 C.3     1  UNL1        0.0938
     39 C          67.2669   93.4280   10.0824 C.3     1  UNL1        0.1081
@<TRIPOS>BOND
     1    21    22    1
     2    22    13    1
     3    13    14   ar
     4    14    15   ar
     5    15    23    1
     6    23    24    1
     7    15    16   ar
     8    16    17    1
     9    16    18   ar
    10    18     7    1
    11     7     8   am
    12     8     9    2
    13     8    10   am
    14    10    11    1
    15    10     1    1
    16     1     2   ar
    17     2     3   ar
    18     3    25    1
    19    25    27    1
    20    27    28   ar
    21    28    29   ar
    22    29    30   ar
    23    30    31   ar
    24    31    33    1
    25    33    34    1
    26    34    35    1
    27    35    36    1
    28    36    37    1
    29    36    38    1
    30    38    39    1
    31    31    32   ar
    32     3     4   ar
    33     4     5   ar
    34     5     6   ar
    35    18    19   ar
    36    19    20    1
    37    19    13   ar
    38     6     1   ar
    39    32    27   ar
    40    39    33    1
    41     7    12    1
    42    25    26    1
@<TRIPOS>MOLECULE
*****
 39 42 0 0 0
SMALL
GASTEIGER

@<TRIPOS>ATOM
      1 C          63.4731   86.3973   14.4269 C.ar    1  UNL1        0.1432
      2 C          63.5350   87.6842   13.6588 C.ar    1  UNL1        0.0691
      3 C          63.5647   88.9935   14.3902 C.ar    1  UNL1        0.1368
      4 N          63.5323   89.0159   15.8896 N.ar    1  UNL1       -0.2088
      5 C          63.4703   87.7290   16.6578 C.ar    1  UNL1        0.2012
      6 N          63.4407   86.4197   15.9265 N.ar    1  UNL1       -0.2085
      7 N          62.3905   86.2644   11.6322 N.am    1  UNL1       -0.2663
      8 C          62.9021   85.0216   12.2982 C.2     1  UNL1        0.3126
      9 O          62.8725   83.7123   11.5668 O.2     1  UNL1       -0.2519
     10 N          63.4434   85.0880   13.6956 N.am    1  UNL1       -0.2261
     11 C          63.9551   83.8452   14.3615 C.3     1  UNL1        0.1231
     12 H          62.4099   87.1238   12.1122 H       1  UNL1        0.1565
     13 C          60.0627   86.8873    8.4788 C.ar    1  UNL1        0.1535
     14 C          60.7666   86.0653    7.4402 C.ar    1  UNL1        0.0756
     15 C          62.0117   85.3096    7.7988 C.ar    1  UNL1        0.1535
     16 C          62.5530   85.3760    9.1961 C.ar    1  UNL1        0.1060
     17 CL         63.7982   84.6204    9.5548 Cl      1  UNL1       -0.0777
     18 C          61.8492   86.1980   10.2348 C.ar    1  UNL1        0.0788
     19 C          60.6040   86.9536    9.8761 C.ar    1  UNL1        0.1060
     20 CL         59.9002   87.7757   10.9149 Cl      1  UNL1       -0.0777
     21 C          58.9058   88.8698    7.2618 C.3     1  UNL1        0.2525
     22 O          58.8176   87.6429    8.1202 O.3     1  UNL1       -0.4704
     23 O          62.7156   84.4876    6.7601 O.3     1  UNL1       -0.4704
     24 C          62.0124   84.1286    5.4847 C.3     1  UNL1        0.2525
     25 N          63.6266   90.2804   13.6221 N.pl3   1  UNL1       -0.2978
     26 H          62.8305   90.6070   13.1439 H       1  UNL1        0.1536
     27 C          64.9017   91.0697   13.5827 C.ar    1  UNL1        0.0506
     28 C          65.9468   90.8595   14.6379 C.ar    1  UNL1        0.0147
     29 C          67.2217   91.6487   14.5985 C.ar    1  UNL1        0.0025
     30 C          67.4516   92.6481   13.5039 C.ar    1  UNL1        0.0146
     31 C          66.4065   92.8583   12.4486 C.ar    1  UNL1        0.0492
     32 C          65.1315   92.0691   12.4880 C.ar    1  UNL1        0.0291
     33 N          66.6364   93.8577   11.3539 N.pl3   1  UNL1       -0.3046
     34 C          66.1849   95.2775   11.5276 C.3     1  UNL1        0.1081
     35 C          66.4148   96.2770   10.4329 C.3     1  UNL1        0.0938
     36 N          67.0962   95.8565    9.1645 N.3     1  UNL1       -0.2686
     37 C          67.3261   96.8559    8.0698 C.3     1  UNL1        0.0897
     38 C          67.5477   94.4366    8.9908 C.3     1  UNL1        0.0938
     39 C          67.3178   93.4373   10.0855 C.3     1  UNL1        0.1081
@<TRIPOS>BOND
     1    21    22    1
     2    22    13    1
     3    13    14   ar
     4    14    15   ar
     5    15    23    1
     6    23    24    1
     7    15    16   ar
     8    16    17    1
     9    16    18   ar
    10    18     7    1
    11     7     8   am
    12     8     9    2
    13     8    10   am
    14    10    11    1
    15    10     1    1
    16     1     2   ar
    17     2     3   ar
    18     3    25    1
    19    25    27    1
    20    27    28   ar
    21    28    29   ar
    22    29    30   ar
    23    30    31   ar
    24    31    33    1
    25    33    34    1
    26    34    35    1
    27    35    36    1
    28    36    37    1
    29    36    38    1
    30    38    39    1
    31    31    32   ar
    32     3     4   ar
    33     4     5   ar
    34     5     6   ar
    35    18    19   ar
    36    19    20    1
    37    19    13   ar
    38     6     1   ar
    39    32    27   ar
    40    39    33    1
    41     7    12    1
    42    25    26    1
@<TRIPOS>MOLECULE
*****
 39 42 0 0 0
SMALL
GASTEIGER

@<TRIPOS>ATOM
      1 C          61.0727   86.4553    8.4080 C.ar    1  UNL1        0.1432
      2 C          62.1540   85.7538    9.1751 C.ar    1  UNL1        0.0691
      3 C          62.9441   84.6570    8.5249 C.ar    1  UNL1        0.1368
      4 N          62.6528   84.2617    7.1076 N.ar    1  UNL1       -0.2088
      5 C          61.5714   84.9632    6.3404 C.ar    1  UNL1        0.2012
      6 N          60.7813   86.0601    6.9906 N.ar    1  UNL1       -0.2085
      7 N          62.4117   88.3347   10.3251 N.am    1  UNL1       -0.2663
      8 C          60.9522   88.4919   10.0168 C.2     1  UNL1        0.3126
      9 O          60.1621   89.5887   10.6670 O.2     1  UNL1       -0.2519
     10 N          60.2826   87.5522    9.0582 N.am    1  UNL1       -0.2261
     11 C          58.8231   87.7094    8.7499 C.3     1  UNL1        0.1231
     12 H          62.9302   87.6148    9.8983 H       1  UNL1        0.1565
     13 C          64.1056   91.6044   11.8050 C.ar    1  UNL1        0.1535
     14 C          64.4202   91.1537   13.2006 C.ar    1  UNL1        0.0756
     15 C          64.0653   89.7634   13.6378 C.ar    1  UNL1        0.1535
     16 C          63.3958   88.8238   12.6793 C.ar    1  UNL1        0.1060
     17 CL         63.0409   87.4335   13.1165 Cl      1  UNL1       -0.0777
     18 C          63.0812   89.2744   11.2837 C.ar    1  UNL1        0.0788
     19 C          63.4361   90.6647   10.8465 C.ar    1  UNL1        0.1060
     20 CL         63.1215   91.1153    9.4507 Cl      1  UNL1       -0.0777
     21 C          65.7678   93.2537   10.6794 C.3     1  UNL1        0.2525
     22 O          64.4605   92.9946   11.3678 O.3     1  UNL1       -0.4704
     23 O          64.3800   89.3128   15.0335 O.3     1  UNL1       -0.4704
     24 C          63.4381   89.6345   16.1557 C.3     1  UNL1        0.2525
     25 N          64.0254   83.9554    9.2920 N.pl3   1  UNL1       -0.2978
     26 H          64.9445   83.9345    8.9398 H       1  UNL1        0.1536
     27 C          63.7064   83.2857   10.5958 C.ar    1  UNL1        0.0506
     28 C          63.5097   81.7996   10.6472 C.ar    1  UNL1        0.0147
     29 C          63.1907   81.1299   11.9509 C.ar    1  UNL1        0.0025
     30 C          63.0684   81.9463   13.2032 C.ar    1  UNL1        0.0146
     31 C          63.2652   83.4325   13.1518 C.ar    1  UNL1        0.0492
     32 C          63.5842   84.1022   11.8481 C.ar    1  UNL1        0.0291
     33 N          63.1429   84.2489   14.4043 N.pl3   1  UNL1       -0.3046
     34 C          64.3343   84.9885   14.9367 C.3     1  UNL1        0.1081
     35 C          64.2121   85.8050   16.1891 C.3     1  UNL1        0.0938
     36 N          62.8984   85.8818   16.9091 N.3     1  UNL1       -0.2686
     37 C          62.7761   86.6982   18.1615 C.3     1  UNL1        0.0897
     38 C          61.7069   85.1421   16.3766 C.3     1  UNL1        0.0938
     39 C          61.8292   84.3257   15.1242 C.3     1  UNL1        0.1081
@<TRIPOS>BOND
     1    21    22    1
     2    22    13    1
     3    13    14   ar
     4    14    15   ar
     5    15    23    1
     6    23    24    1
     7    15    16   ar
     8    16    17    1
     9    16    18   ar
    10    18     7    1
    11     7     8   am
    12     8     9    2
    13     8    10   am
    14    10    11    1
    15    10     1    1
    16     1     2   ar
    17     2     3   ar
    18     3    25    1
    19    25    27    1
    20    27    28   ar
    21    28    29   ar
    22    29    30   ar
    23    30    31   ar
    24    31    33    1
    25    33    34    1
    26    34    35    1
    27    35    36    1
    28    36    37    1
    29    36    38    1
    30    38    39    1
    31    31    32   ar
    32     3     4   ar
    33     4     5   ar
    34     5     6   ar
    35    18    19   ar
    36    19    20    1
    37    19    13   ar
    38     6     1   ar
    39    32    27   ar
    40    39    33    1
    41     7    12    1
    42    25    26    1
@<TRIPOS>MOLECULE
*****
 39 42 0 0 0
SMALL
GASTEIGER

@<TRIPOS>ATOM
      1 C          63.6577   89.9815   13.4346 C.ar    1  UNL1        0.1432
      2 C          64.2353   88.5998   13.5193 C.ar    1  UNL1        0.0691
      3 C          64.2476   87.8712   14.8304 C.ar    1  UNL1        0.1368
      4 N          63.6823   88.5243   16.0567 N.ar    1  UNL1       -0.2088
      5 C          63.1047   89.9060   15.9720 C.ar    1  UNL1        0.2012
      6 N          63.0924   90.6347   14.6609 N.ar    1  UNL1       -0.2085
      7 N          62.2137   88.8094   11.0806 N.am    1  UNL1       -0.2663
      8 C          62.9234   90.1240   10.9465 C.2     1  UNL1        0.3126
      9 O          62.9111   90.8526    9.6354 O.2     1  UNL1       -0.2519
     10 N          63.6455   90.7101   12.1235 N.am    1  UNL1       -0.2261
     11 C          64.3552   92.0247   11.9893 C.3     1  UNL1        0.1231
     12 H          62.2218   88.3312   11.9411 H       1  UNL1        0.1565
     13 C          61.1134   86.2583    8.2467 C.ar    1  UNL1        0.1535
     14 C          60.0477   87.0511    7.5498 C.ar    1  UNL1        0.0756
     15 C          59.7040   88.4301    8.0298 C.ar    1  UNL1        0.1535
     16 C          60.4260   89.0161    9.2067 C.ar    1  UNL1        0.1060
     17 CL         60.0823   90.3951    9.6868 Cl      1  UNL1       -0.0777
     18 C          61.4916   88.2233    9.9036 C.ar    1  UNL1        0.0788
     19 C          61.8353   86.8444    9.4236 C.ar    1  UNL1        0.1060
     20 CL         62.9011   86.0515   10.1205 Cl      1  UNL1       -0.0777
     21 C          61.9778   84.6780    6.3744 C.3     1  UNL1        0.2525
     22 O          61.4570   84.8794    7.7666 O.3     1  UNL1       -0.4704
     23 O          58.6382   89.2229    7.3329 O.3     1  UNL1       -0.4704
     24 C          58.9546   89.9456    6.0571 C.3     1  UNL1        0.2525
     25 N          64.8252   86.4894   14.9152 N.pl3   1  UNL1       -0.2978
     26 H          65.8015   86.3642   14.9321 H       1  UNL1        0.1536
     27 C          63.9151   85.2984   14.9744 C.ar    1  UNL1        0.0506
     28 C          63.0003   85.1111   16.1482 C.ar    1  UNL1        0.0147
     29 C          62.0903   83.9202   16.2074 C.ar    1  UNL1        0.0025
     30 C          62.0951   82.9166   15.0927 C.ar    1  UNL1        0.0146
     31 C          63.0100   83.1039   13.9188 C.ar    1  UNL1        0.0492
     32 C          63.9200   84.2948   13.8596 C.ar    1  UNL1        0.0291
     33 N          63.0148   82.1002   12.8040 N.pl3   1  UNL1       -0.3046
     34 C          63.4057   82.5203   11.4182 C.3     1  UNL1        0.1081
     35 C          63.4105   81.5166   10.3034 C.3     1  UNL1        0.0938
     36 N          63.0243   80.0928   10.5746 N.3     1  UNL1       -0.2686
     37 C          63.0291   79.0891    9.4599 C.3     1  UNL1        0.0897
     38 C          62.6334   79.6726   11.9605 C.3     1  UNL1        0.0938
     39 C          62.6286   80.6763   13.0752 C.3     1  UNL1        0.1081
@<TRIPOS>BOND
     1    21    22    1
     2    22    13    1
     3    13    14   ar
     4    14    15   ar
     5    15    23    1
     6    23    24    1
     7    15    16   ar
     8    16    17    1
     9    16    18   ar
    10    18     7    1
    11     7     8   am
    12     8     9    2
    13     8    10   am
    14    10    11    1
    15    10     1    1
    16     1     2   ar
    17     2     3   ar
    18     3    25    1
    19    25    27    1
    20    27    28   ar
    21    28    29   ar
    22    29    30   ar
    23    30    31   ar
    24    31    33    1
    25    33    34    1
    26    34    35    1
    27    35    36    1
    28    36    37    1
    29    36    38    1
    30    38    39    1
    31    31    32   ar
    32     3     4   ar
    33     4     5   ar
    34     5     6   ar
    35    18    19   ar
    36    19    20    1
    37    19    13   ar
    38     6     1   ar
    39    32    27   ar
    40    39    33    1
    41     7    12    1
    42    25    26    1
@<TRIPOS>MOLECULE
*****
 39 42 0 0 0
SMALL
GASTEIGER

@<TRIPOS>ATOM
      1 C          63.6892   89.9364   13.4712 C.ar    1  UNL1        0.1432
      2 C          64.2569   88.5502   13.5498 C.ar    1  UNL1        0.0691
      3 C          64.2664   87.8166   14.8581 C.ar    1  UNL1        0.1368
      4 N          63.7083   88.4692   16.0880 N.ar    1  UNL1       -0.2088
      5 C          63.1406   89.8555   16.0095 C.ar    1  UNL1        0.2012
      6 N          63.1311   90.5891   14.7011 N.ar    1  UNL1       -0.2085
      7 N          62.2428   88.7773   11.1123 N.am    1  UNL1       -0.2663
      8 C          62.9564   90.0904   10.9834 C.2     1  UNL1        0.3126
      9 O          62.9469   90.8239    9.6750 O.2     1  UNL1       -0.2519
     10 N          63.6797   90.6699   12.1629 N.am    1  UNL1       -0.2261
     11 C          64.3933   91.9829   12.0340 C.3     1  UNL1        0.1231
     12 H          62.2491   88.2959   11.9710 H       1  UNL1        0.1565
     13 C          59.7358   88.4183    8.0568 C.ar    1  UNL1        0.1535
     14 C          60.0731   87.0389    7.5739 C.ar    1  UNL1        0.0756
     15 C          61.1337   86.2389    8.2705 C.ar    1  UNL1        0.1535
     16 C          61.8569   86.8183    9.4499 C.ar    1  UNL1        0.1060
     17 CL         62.9174   86.0183   10.1465 Cl      1  UNL1       -0.0777
     18 C          61.5196   88.1978    9.9328 C.ar    1  UNL1        0.0788
     19 C          60.4590   88.9978    9.2362 C.ar    1  UNL1        0.1060
     20 CL         60.1217   90.3774    9.7191 Cl      1  UNL1       -0.0777
     21 C          58.9918   89.9264    6.0763 C.3     1  UNL1        0.2525
     22 O          58.6752   89.2184    7.3602 O.3     1  UNL1       -0.4704
     23 O          61.4710   84.8593    7.7876 O.3     1  UNL1       -0.4704
     24 C          61.8334   84.6359    6.3492 C.3     1  UNL1        0.2525
     25 N          64.8341   86.4304   14.9366 N.pl3   1  UNL1       -0.2978
     26 H          65.8094   86.2985   14.9597 H       1  UNL1        0.1536
     27 C          63.9157   85.2452   14.9800 C.ar    1  UNL1        0.0506
     28 C          62.9899   85.0559   16.1450 C.ar    1  UNL1        0.0147
     29 C          62.0716   83.8708   16.1883 C.ar    1  UNL1        0.0025
     30 C          62.0789   82.8749   15.0667 C.ar    1  UNL1        0.0146
     31 C          63.0046   83.0641   13.9017 C.ar    1  UNL1        0.0492
     32 C          63.9230   84.2493   13.8583 C.ar    1  UNL1        0.0291
     33 N          63.0119   82.0682   12.7801 N.pl3   1  UNL1       -0.3046
     34 C          62.6255   80.6424   13.0405 C.3     1  UNL1        0.1081
     35 C          62.6328   79.6464   11.9189 C.3     1  UNL1        0.0938
     36 N          63.0265   80.0763   10.5368 N.3     1  UNL1       -0.2686
     37 C          63.0339   79.0804    9.4151 C.3     1  UNL1        0.0897
     38 C          63.4130   81.5021   10.2763 C.3     1  UNL1        0.0938
     39 C          63.4057   82.4980   11.3980 C.3     1  UNL1        0.1081
@<TRIPOS>BOND
     1    21    22    1
     2    22    13    1
     3    13    14   ar
     4    14    15   ar
     5    15    23    1
     6    23    24    1
     7    15    16   ar
     8    16    17    1
     9    16    18   ar
    10    18     7    1
    11     7     8   am
    12     8     9    2
    13     8    10   am
    14    10    11    1
    15    10     1    1
    16     1     2   ar
    17     2     3   ar
    18     3    25    1
    19    25    27    1
    20    27    28   ar
    21    28    29   ar
    22    29    30   ar
    23    30    31   ar
    24    31    33    1
    25    33    34    1
    26    34    35    1
    27    35    36    1
    28    36    37    1
    29    36    38    1
    30    38    39    1
    31    31    32   ar
    32     3     4   ar
    33     4     5   ar
    34     5     6   ar
    35    18    19   ar
    36    19    20    1
    37    19    13   ar
    38     6     1   ar
    39    32    27   ar
    40    39    33    1
    41     7    12    1
    42    25    26    1
