@<TRIPOS>MOLECULE
*****
 40 42 0 0 0
SMALL
GASTEIGER

@<TRIPOS>ATOM
      1 N          64.0037   89.9199   13.0632 N.ar    1  UNL1       -0.3189
      2 C          65.0386   89.8450   14.1463 C.ar    1  UNL1        0.0603
      3 C          65.1854   88.4074   14.5484 C.ar    1  UNL1        0.0186
      4 C          64.2413   87.5938   13.7138 C.ar    1  UNL1        0.0169
      5 C          63.9522   86.1226   13.6710 C.ar    1  UNL1       -0.0023
      6 C          62.9329   85.5861   12.7103 C.ar    1  UNL1       -0.0145
      7 C          62.2025   86.5209   11.7923 C.ar    1  UNL1       -0.0023
      8 C          62.4915   87.9922   11.8351 C.ar    1  UNL1        0.0169
      9 C          63.5109   88.5286   12.7958 C.ar    1  UNL1        0.0602
     10 C          65.7940   91.0042   14.7257 C.ar    1  UNL1        0.0160
     11 C          65.1863   91.8197   15.8282 C.ar    1  UNL1        0.0045
     12 C          65.9418   92.9789   16.4076 C.ar    1  UNL1        0.0372
     13 C          67.3049   93.3225   15.8844 C.ar    1  UNL1        0.1468
     14 C          67.9126   92.5070   14.7819 C.ar    1  UNL1        0.0372
     15 C          67.1571   91.3478   14.2026 C.ar    1  UNL1        0.0045
     16 O          68.0603   94.4817   16.4638 O.3     1  UNL1       -0.4045
     17 C          69.5022   94.6907   16.1073 C.3     1  UNL1        0.5753
     18 F          70.9442   94.8998   15.7507 F       1  UNL1       -0.1328
     19 F          69.8094   93.2831   16.5246 F       1  UNL1       -0.1328
     20 F          69.1950   96.0983   15.6900 F       1  UNL1       -0.1328
     21 C          62.6438   84.1148   12.6675 C.3     1  UNL1        0.0876
     22 C          62.5001   84.0996   14.1605 C.3     1  UNL1        0.0135
     23 C          62.7875   84.1300   11.1746 C.3     1  UNL1        0.0135
     24 C          62.3547   82.6436   12.6247 C.2     1  UNL1        0.2252
     25 O          62.4253   81.9030   11.3222 O.2     1  UNL1       -0.2748
     26 N          61.9951   81.9129   13.8844 N.am    1  UNL1       -0.3072
     27 H          61.9488   82.3990   14.7393 H       1  UNL1        0.1493
     28 C          61.7061   80.4417   13.8416 C.3     1  UNL1        0.0569
     29 C          63.1594   80.1633   13.5960 C.3     1  UNL1        0.0196
     30 C          60.2528   80.7200   14.0872 C.3     1  UNL1        0.0196
     31 C          61.4170   78.9704   13.7988 C.3     1  UNL1        0.0196
     32 C          63.5425   91.1672   12.3691 C.3     1  UNL1        0.1917
     33 N          65.5769   92.6291   11.6809 N.am    1  UNL1       -0.3059
     34 C          64.3928   91.7898   11.3019 C.2     1  UNL1        0.2455
     35 O          64.0592   91.5732    9.8555 O.2     1  UNL1       -0.2730
     36 H          65.7959   92.7713   12.6301 H       1  UNL1        0.1494
     37 C          65.5531   94.4706   10.6281 C.3     1  UNL1        0.0196
     38 C          66.4273   93.2517   10.6135 C.3     1  UNL1        0.0569
     39 C          67.3014   92.0329   10.5990 C.3     1  UNL1        0.0196
     40 C          67.2777   93.8743    9.5462 C.3     1  UNL1        0.0196
@<TRIPOS>BOND
     1    37    38    1
     2    38    39    1
     3    38    40    1
     4    38    33    1
     5    33    34   am
     6    34    35    2
     7    34    32    1
     8    32     1    1
     9     1     2   ar
    10     2    10    1
    11    10    11   ar
    12    11    12   ar
    13    12    13   ar
    14    13    16    1
    15    16    17    1
    16    17    18    1
    17    17    19    1
    18    17    20    1
    19    13    14   ar
    20    14    15   ar
    21     2     3   ar
    22     3     4   ar
    23     4     5   ar
    24     5     6   ar
    25     6    21    1
    26    21    22    1
    27    21    23    1
    28    21    24    1
    29    24    25    2
    30    24    26   am
    31    26    28    1
    32    28    29    1
    33    28    30    1
    34    28    31    1
    35     6     7   ar
    36     7     8   ar
    37     8     9   ar
    38     9     1   ar
    39    15    10   ar
    40     9     4   ar
    41    33    36    1
    42    26    27    1
@<TRIPOS>MOLECULE
*****
 40 42 0 0 0
SMALL
GASTEIGER

@<TRIPOS>ATOM
      1 N          64.3574   90.7918   14.4398 N.ar    1  UNL1       -0.3189
      2 C          64.6313   90.9229   12.9709 C.ar    1  UNL1        0.0603
      3 C          64.5069   89.5618   12.3530 C.ar    1  UNL1        0.0186
      4 C          64.1562   88.5895   13.4400 C.ar    1  UNL1        0.0169
      5 C          63.9090   87.1101   13.4221 C.ar    1  UNL1       -0.0023
      6 C          63.5695   86.3910   14.6939 C.ar    1  UNL1       -0.0145
      7 C          63.4771   87.1512   15.9836 C.ar    1  UNL1       -0.0023
      8 C          63.7243   88.6306   16.0016 C.ar    1  UNL1        0.0169
      9 C          64.0638   89.3497   14.7298 C.ar    1  UNL1        0.0602
     10 C          64.9700   92.1923   12.2470 C.ar    1  UNL1        0.0160
     11 C          65.7352   93.2747   12.9489 C.ar    1  UNL1        0.0045
     12 C          66.0739   94.5440   12.2250 C.ar    1  UNL1        0.0372
     13 C          65.6475   94.7309   10.7991 C.ar    1  UNL1        0.1468
     14 C          64.8823   93.6485   10.0972 C.ar    1  UNL1        0.0372
     15 C          64.5435   92.3791   10.8211 C.ar    1  UNL1        0.0045
     16 O          65.9862   96.0002   10.0752 O.3     1  UNL1       -0.4045
     17 C          66.9232   95.9687    8.9043 C.3     1  UNL1        0.5753
     18 F          67.8603   95.9372    7.7334 F       1  UNL1       -0.1328
     19 F          65.9876   96.8506    8.1318 F       1  UNL1       -0.1328
     20 F          67.8588   95.0868    9.6768 F       1  UNL1       -0.1328
     21 C          63.3223   84.9116   14.6760 C.3     1  UNL1        0.0876
     22 C          63.8472   84.8408   13.2726 C.3     1  UNL1        0.0135
     23 C          62.7974   84.9823   16.0793 C.3     1  UNL1        0.0135
     24 C          63.0752   83.4322   14.6581 C.2     1  UNL1        0.2252
     25 O          63.4158   82.6003   15.8589 O.2     1  UNL1       -0.2748
     26 N          62.4873   82.7847   13.4394 N.am    1  UNL1       -0.3072
     27 H          62.2637   83.3307   12.6512 H       1  UNL1        0.1493
     28 C          62.2401   81.3053   13.4215 C.3     1  UNL1        0.0569
     29 C          60.9698   81.5083   14.1929 C.3     1  UNL1        0.0196
     30 C          63.5104   81.1024   12.6501 C.3     1  UNL1        0.0196
     31 C          61.9929   79.8260   13.4036 C.3     1  UNL1        0.0196
     32 C          64.3743   91.9071   15.4428 C.3     1  UNL1        0.1917
     33 N          66.9190   92.3634   15.1860 N.am    1  UNL1       -0.3059
     34 C          65.6758   92.3725   16.0252 C.2     1  UNL1        0.2455
     35 O          65.7342   92.8471   17.4470 O.2     1  UNL1       -0.2730
     36 H          66.8807   92.0519   14.2528 H       1  UNL1        0.1494
     37 C          67.9204   94.2286   15.3206 C.3     1  UNL1        0.0196
     38 C          68.2206   92.8288   15.7685 C.3     1  UNL1        0.0569
     39 C          68.5207   91.4290   16.2163 C.3     1  UNL1        0.0196
     40 C          69.5221   93.2942   16.3510 C.3     1  UNL1        0.0196
@<TRIPOS>BOND
     1    37    38    1
     2    38    39    1
     3    38    40    1
     4    38    33    1
     5    33    34   am
     6    34    35    2
     7    34    32    1
     8    32     1    1
     9     1     2   ar
    10     2    10    1
    11    10    11   ar
    12    11    12   ar
    13    12    13   ar
    14    13    16    1
    15    16    17    1
    16    17    18    1
    17    17    19    1
    18    17    20    1
    19    13    14   ar
    20    14    15   ar
    21     2     3   ar
    22     3     4   ar
    23     4     5   ar
    24     5     6   ar
    25     6    21    1
    26    21    22    1
    27    21    23    1
    28    21    24    1
    29    24    25    2
    30    24    26   am
    31    26    28    1
    32    28    29    1
    33    28    30    1
    34    28    31    1
    35     6     7   ar
    36     7     8   ar
    37     8     9   ar
    38     9     1   ar
    39    15    10   ar
    40     9     4   ar
    41    33    36    1
    42    26    27    1
@<TRIPOS>MOLECULE
*****
 40 42 0 0 0
SMALL
GASTEIGER

@<TRIPOS>ATOM
      1 N          62.9457   87.8464   12.3207 N.ar    1  UNL1       -0.3189
      2 C          63.8764   87.9790   13.4895 C.ar    1  UNL1        0.0603
      3 C          64.2807   86.5998   13.9189 C.ar    1  UNL1        0.0186
      4 C          63.5999   85.6148   13.0154 C.ar    1  UNL1        0.0169
      5 C          63.6247   84.1159   12.9646 C.ar    1  UNL1       -0.0023
      6 C          62.8244   83.3874   11.9260 C.ar    1  UNL1       -0.0145
      7 C          61.9992   84.1578   10.9383 C.ar    1  UNL1       -0.0023
      8 C          61.9744   85.6567   10.9891 C.ar    1  UNL1        0.0169
      9 C          62.7748   86.3852   12.0277 C.ar    1  UNL1        0.0602
     10 C          64.3242   89.2650   14.1185 C.ar    1  UNL1        0.0160
     11 C          65.3498   90.1182   13.4328 C.ar    1  UNL1        0.0045
     12 C          65.7975   91.4042   14.0618 C.ar    1  UNL1        0.0372
     13 C          65.2197   91.8371   15.3766 C.ar    1  UNL1        0.1468
     14 C          64.1941   90.9840   16.0623 C.ar    1  UNL1        0.0372
     15 C          63.7464   89.6979   15.4333 C.ar    1  UNL1        0.0045
     16 O          65.6675   93.1231   16.0056 O.3     1  UNL1       -0.4045
     17 C          67.0878   93.5796   15.8497 C.3     1  UNL1        0.5753
     18 F          68.5082   94.0361   15.6938 F       1  UNL1       -0.1328
     19 F          66.6829   94.4444   14.6929 F       1  UNL1       -0.1328
     20 F          67.4927   92.7148   17.0065 F       1  UNL1       -0.1328
     21 C          62.8491   81.8884   11.8751 C.3     1  UNL1        0.0876
     22 C          63.5803   81.9449   10.5666 C.3     1  UNL1        0.0135
     23 C          62.1180   81.8320   13.1836 C.3     1  UNL1        0.0135
     24 C          62.8739   80.3895   11.8242 C.2     1  UNL1        0.2252
     25 O          62.8488   79.5954   13.0965 O.2     1  UNL1       -0.2748
     26 N          62.9237   79.6847   10.5010 N.am    1  UNL1       -0.3072
     27 H          62.9401   80.2059    9.6660 H       1  UNL1        0.1493
     28 C          62.9484   78.1858   10.4502 C.3     1  UNL1        0.0569
     29 C          63.7430   78.2420    9.1792 C.3     1  UNL1        0.0196
     30 C          62.1538   78.1295   11.7212 C.3     1  UNL1        0.0196
     31 C          62.9732   76.6869   10.3993 C.3     1  UNL1        0.0196
     32 C          62.2993   88.9765   11.5757 C.3     1  UNL1        0.1917
     33 N          61.2916   88.4177    9.2471 N.am    1  UNL1       -0.3059
     34 C          61.1058   88.7156   10.7055 C.2     1  UNL1        0.2455
     35 O          59.7263   88.7527   11.2935 O.2     1  UNL1       -0.2730
     36 H          62.1969   88.3934    8.8611 H       1  UNL1        0.1494
     37 C          59.8934   89.6340    8.2147 C.3     1  UNL1        0.0196
     38 C          60.0980   88.1569    8.3769 C.3     1  UNL1        0.0569
     39 C          60.3025   86.6798    8.5391 C.3     1  UNL1        0.0196
     40 C          58.9044   87.8960    7.5067 C.3     1  UNL1        0.0196
@<TRIPOS>BOND
     1    37    38    1
     2    38    39    1
     3    38    40    1
     4    38    33    1
     5    33    34   am
     6    34    35    2
     7    34    32    1
     8    32     1    1
     9     1     2   ar
    10     2    10    1
    11    10    11   ar
    12    11    12   ar
    13    12    13   ar
    14    13    16    1
    15    16    17    1
    16    17    18    1
    17    17    19    1
    18    17    20    1
    19    13    14   ar
    20    14    15   ar
    21     2     3   ar
    22     3     4   ar
    23     4     5   ar
    24     5     6   ar
    25     6    21    1
    26    21    22    1
    27    21    23    1
    28    21    24    1
    29    24    25    2
    30    24    26   am
    31    26    28    1
    32    28    29    1
    33    28    30    1
    34    28    31    1
    35     6     7   ar
    36     7     8   ar
    37     8     9   ar
    38     9     1   ar
    39    15    10   ar
    40     9     4   ar
    41    33    36    1
    42    26    27    1
@<TRIPOS>MOLECULE
*****
 40 42 0 0 0
SMALL
GASTEIGER

@<TRIPOS>ATOM
      1 N          63.6886   89.2882   13.0154 N.ar    1  UNL1       -0.3189
      2 C          64.6951   89.2442   14.1266 C.ar    1  UNL1        0.0603
      3 C          64.8830   87.8105   14.5254 C.ar    1  UNL1        0.0186
      4 C          63.9925   86.9683   13.6606 C.ar    1  UNL1        0.0169
      5 C          63.7585   85.4878   13.6024 C.ar    1  UNL1       -0.0023
      6 C          62.7863   84.9207   12.6109 C.ar    1  UNL1       -0.0145
      7 C          62.0481   85.8339   11.6776 C.ar    1  UNL1       -0.0023
      8 C          62.2821   87.3144   11.7359 C.ar    1  UNL1        0.0169
      9 C          63.2543   87.8816   12.7274 C.ar    1  UNL1        0.0602
     10 C          65.3916   90.4265   14.7327 C.ar    1  UNL1        0.0160
     11 C          66.7838   90.7795   14.3005 C.ar    1  UNL1        0.0045
     12 C          67.4803   91.9617   14.9066 C.ar    1  UNL1        0.0372
     13 C          66.7844   92.7909   15.9449 C.ar    1  UNL1        0.1468
     14 C          65.3921   92.4379   16.3771 C.ar    1  UNL1        0.0372
     15 C          64.6957   91.2557   15.7710 C.ar    1  UNL1        0.0045
     16 O          67.4808   93.9731   16.5509 O.3     1  UNL1       -0.4045
     17 C          68.9431   94.1925   16.2989 C.3     1  UNL1        0.5753
     18 F          70.4055   94.4120   16.0469 F       1  UNL1       -0.1328
     19 F          69.2213   92.7665   16.6716 F       1  UNL1       -0.1328
     20 F          68.6649   95.6186   15.9262 F       1  UNL1       -0.1328
     21 C          62.5523   83.4401   12.5526 C.3     1  UNL1        0.0876
     22 C          62.6475   83.4839   11.0563 C.3     1  UNL1        0.0135
     23 C          62.4571   83.3963   14.0489 C.3     1  UNL1        0.0135
     24 C          62.3182   81.9597   12.4944 C.2     1  UNL1        0.2252
     25 O          61.3733   81.3111   13.4620 O.2     1  UNL1       -0.2748
     26 N          63.0292   81.1277   11.4685 N.am    1  UNL1       -0.3072
     27 H          63.6494   81.5534   10.8334 H       1  UNL1        0.1493
     28 C          62.7952   79.6472   11.4102 C.3     1  UNL1        0.0569
     29 C          62.6662   79.7263    9.9179 C.3     1  UNL1        0.0196
     30 C          62.9242   79.5682   12.9026 C.3     1  UNL1        0.0196
     31 C          62.5611   78.1668   11.3520 C.3     1  UNL1        0.0196
     32 C          63.2017   90.5221   12.3151 C.3     1  UNL1        0.1917
     33 N          61.2576   89.5168   10.9151 N.am    1  UNL1       -0.3059
     34 C          62.4626   90.4045   11.0152 C.2     1  UNL1        0.2455
     35 O          62.9285   91.1746    9.8152 O.2     1  UNL1       -0.2730
     36 H          60.9518   89.0113   11.7027 H       1  UNL1        0.1494
     37 C          61.4624   88.3192    9.1762 C.3     1  UNL1        0.0196
     38 C          60.5186   89.3992    9.6151 C.3     1  UNL1        0.0569
     39 C          59.5747   90.4793   10.0540 C.3     1  UNL1        0.0196
     40 C          59.7795   89.2817    8.3151 C.3     1  UNL1        0.0196
@<TRIPOS>BOND
     1    37    38    1
     2    38    39    1
     3    38    40    1
     4    38    33    1
     5    33    34   am
     6    34    35    2
     7    34    32    1
     8    32     1    1
     9     1     2   ar
    10     2    10    1
    11    10    11   ar
    12    11    12   ar
    13    12    13   ar
    14    13    16    1
    15    16    17    1
    16    17    18    1
    17    17    19    1
    18    17    20    1
    19    13    14   ar
    20    14    15   ar
    21     2     3   ar
    22     3     4   ar
    23     4     5   ar
    24     5     6   ar
    25     6    21    1
    26    21    22    1
    27    21    23    1
    28    21    24    1
    29    24    25    2
    30    24    26   am
    31    26    28    1
    32    28    29    1
    33    28    30    1
    34    28    31    1
    35     6     7   ar
    36     7     8   ar
    37     8     9   ar
    38     9     1   ar
    39    15    10   ar
    40     9     4   ar
    41    33    36    1
    42    26    27    1
@<TRIPOS>MOLECULE
*****
 40 42 0 0 0
SMALL
GASTEIGER

@<TRIPOS>ATOM
      1 N          61.2826   89.2866    9.3043 N.ar    1  UNL1       -0.3189
      2 C          60.6965   88.7908    8.0157 C.ar    1  UNL1        0.0603
      3 C          60.7733   87.2928    8.0176 C.ar    1  UNL1        0.0186
      4 C          61.4069   86.8627    9.3074 C.ar    1  UNL1        0.0169
      5 C          61.7379   85.5083    9.8605 C.ar    1  UNL1       -0.0023
      6 C          62.3836   85.3861   11.2088 C.ar    1  UNL1       -0.0145
      7 C          62.6984   86.6184   12.0041 C.ar    1  UNL1       -0.0023
      8 C          62.3674   87.9728   11.4510 C.ar    1  UNL1        0.0169
      9 C          61.7217   88.0950   10.1027 C.ar    1  UNL1        0.0602
     10 C          60.1325   89.6433    6.9179 C.ar    1  UNL1        0.0160
     11 C          61.0537   90.3385    5.9598 C.ar    1  UNL1        0.0045
     12 C          60.4898   91.1911    4.8620 C.ar    1  UNL1        0.0372
     13 C          59.0046   91.3484    4.7223 C.ar    1  UNL1        0.1468
     14 C          58.0834   90.6532    5.6804 C.ar    1  UNL1        0.0372
     15 C          58.6474   89.8006    6.7782 C.ar    1  UNL1        0.0045
     16 O          58.4407   92.2009    3.6245 O.3     1  UNL1       -0.4045
     17 C          59.3510   93.0653    2.8034 C.3     1  UNL1        0.5753
     18 F          60.2612   93.9297    1.9822 F       1  UNL1       -0.1328
     19 F          59.7023   93.8580    4.0274 F       1  UNL1       -0.1328
     20 F          58.9996   92.2726    1.5794 F       1  UNL1       -0.1328
     21 C          62.7146   84.0317   11.7620 C.3     1  UNL1        0.0876
     22 C          62.3107   84.4921   13.1312 C.3     1  UNL1        0.0135
     23 C          63.1185   83.5713   10.3927 C.3     1  UNL1        0.0135
     24 C          63.0456   82.6772   12.3150 C.2     1  UNL1        0.2252
     25 O          64.4457   82.3690   12.7564 O.2     1  UNL1       -0.2748
     26 N          61.9765   81.6310   12.4268 N.am    1  UNL1       -0.3072
     27 H          61.0576   81.8332   12.1371 H       1  UNL1        0.1493
     28 C          62.3075   80.2765   12.9798 C.3     1  UNL1        0.0569
     29 C          61.8134   80.7068   14.3292 C.3     1  UNL1        0.0196
     30 C          62.8017   79.8463   11.6305 C.3     1  UNL1        0.0196
     31 C          62.6386   78.9221   13.5329 C.3     1  UNL1        0.0196
     32 C          61.4077   90.7220    9.7215 C.3     1  UNL1        0.1917
     33 N          63.7595   91.4977   10.5074 N.am    1  UNL1       -0.3059
     34 C          62.3480   91.1027   10.8264 C.2     1  UNL1        0.2455
     35 O          61.8767   91.0886   12.2504 O.2     1  UNL1       -0.2730
     36 H          64.0688   91.5069    9.5728 H       1  UNL1        0.1494
     37 C          65.2428   92.9918   10.7666 C.3     1  UNL1        0.0196
     38 C          64.6997   91.8784   11.6124 C.3     1  UNL1        0.0569
     39 C          64.1565   90.7650   12.4582 C.3     1  UNL1        0.0196
     40 C          65.6399   92.2592   12.7174 C.3     1  UNL1        0.0196
@<TRIPOS>BOND
     1    37    38    1
     2    38    39    1
     3    38    40    1
     4    38    33    1
     5    33    34   am
     6    34    35    2
     7    34    32    1
     8    32     1    1
     9     1     2   ar
    10     2    10    1
    11    10    11   ar
    12    11    12   ar
    13    12    13   ar
    14    13    16    1
    15    16    17    1
    16    17    18    1
    17    17    19    1
    18    17    20    1
    19    13    14   ar
    20    14    15   ar
    21     2     3   ar
    22     3     4   ar
    23     4     5   ar
    24     5     6   ar
    25     6    21    1
    26    21    22    1
    27    21    23    1
    28    21    24    1
    29    24    25    2
    30    24    26   am
    31    26    28    1
    32    28    29    1
    33    28    30    1
    34    28    31    1
    35     6     7   ar
    36     7     8   ar
    37     8     9   ar
    38     9     1   ar
    39    15    10   ar
    40     9     4   ar
    41    33    36    1
    42    26    27    1
@<TRIPOS>MOLECULE
*****
 40 42 0 0 0
SMALL
GASTEIGER

@<TRIPOS>ATOM
      1 N          61.9162   88.5750   11.0837 N.ar    1  UNL1       -0.3189
      2 C          61.6192   89.6972   10.1338 C.ar    1  UNL1        0.0603
      3 C          62.4035   90.8974   10.5746 C.ar    1  UNL1        0.0186
      4 C          63.1853   90.5170   11.7969 C.ar    1  UNL1        0.0169
      5 C          64.1324   91.2921   12.6641 C.ar    1  UNL1       -0.0023
      6 C          64.7784   90.6319   13.8459 C.ar    1  UNL1       -0.0145
      7 C          64.4772   89.1965   14.1606 C.ar    1  UNL1       -0.0023
      8 C          63.5300   88.4214   13.2934 C.ar    1  UNL1        0.0169
      9 C          62.8841   89.0816   12.1116 C.ar    1  UNL1        0.0602
     10 C          60.6993   89.6309    8.9508 C.ar    1  UNL1        0.0160
     11 C          60.7784   90.6779    7.8796 C.ar    1  UNL1        0.0045
     12 C          59.8586   90.6116    6.6966 C.ar    1  UNL1        0.0372
     13 C          58.8597   89.4982    6.5848 C.ar    1  UNL1        0.1468
     14 C          58.7806   88.4512    7.6559 C.ar    1  UNL1        0.0372
     15 C          59.7004   88.5175    8.8389 C.ar    1  UNL1        0.0045
     16 O          57.9398   89.4319    5.4017 O.3     1  UNL1       -0.4045
     17 C          57.0849   90.6129    5.0493 C.3     1  UNL1        0.5753
     18 F          56.2298   91.7939    4.6969 F       1  UNL1       -0.1328
     19 F          58.2293   91.2144    4.2888 F       1  UNL1       -0.1328
     20 F          55.9405   90.0113    5.8098 F       1  UNL1       -0.1328
     21 C          65.7256   91.4070   14.7131 C.3     1  UNL1        0.0876
     22 C          64.7502   91.3274   15.8498 C.3     1  UNL1        0.0135
     23 C          66.7011   91.4865   13.5765 C.3     1  UNL1        0.0135
     24 C          66.6729   92.1821   15.5803 C.2     1  UNL1        0.2252
     25 O          66.2224   92.6859   16.9194 O.2     1  UNL1       -0.2748
     26 N          68.0706   92.4534   15.1083 N.am    1  UNL1       -0.3072
     27 H          68.3663   92.1228   14.2294 H       1  UNL1        0.1493
     28 C          69.0178   93.2285   15.9754 C.3     1  UNL1        0.0569
     29 C          69.5649   91.9447   16.5254 C.3     1  UNL1        0.0196
     30 C          68.4708   94.5123   15.4255 C.3     1  UNL1        0.0196
     31 C          69.9651   94.0036   16.8426 C.3     1  UNL1        0.0196
     32 C          61.3455   87.1894   11.0174 C.3     1  UNL1        0.1917
     33 N          62.3581   85.2827   12.4628 N.am    1  UNL1       -0.3059
     34 C          62.2486   85.9991   11.1495 C.2     1  UNL1        0.2455
     35 O          63.0425   85.5252    9.9682 O.2     1  UNL1       -0.2730
     36 H          61.8371   85.5937   13.2381 H       1  UNL1        0.1494
     37 C          64.1447   84.8662   13.5280 C.3     1  UNL1        0.0196
     38 C          63.2613   84.0924   12.5948 C.3     1  UNL1        0.0569
     39 C          62.3779   83.3186   11.6616 C.3     1  UNL1        0.0196
     40 C          64.1645   82.9021   12.7268 C.3     1  UNL1        0.0196
@<TRIPOS>BOND
     1    37    38    1
     2    38    39    1
     3    38    40    1
     4    38    33    1
     5    33    34   am
     6    34    35    2
     7    34    32    1
     8    32     1    1
     9     1     2   ar
    10     2    10    1
    11    10    11   ar
    12    11    12   ar
    13    12    13   ar
    14    13    16    1
    15    16    17    1
    16    17    18    1
    17    17    19    1
    18    17    20    1
    19    13    14   ar
    20    14    15   ar
    21     2     3   ar
    22     3     4   ar
    23     4     5   ar
    24     5     6   ar
    25     6    21    1
    26    21    22    1
    27    21    23    1
    28    21    24    1
    29    24    25    2
    30    24    26   am
    31    26    28    1
    32    28    29    1
    33    28    30    1
    34    28    31    1
    35     6     7   ar
    36     7     8   ar
    37     8     9   ar
    38     9     1   ar
    39    15    10   ar
    40     9     4   ar
    41    33    36    1
    42    26    27    1
