@<TRIPOS>MOLECULE
*****
 32 36 0 0 0
SMALL
GASTEIGER

@<TRIPOS>ATOM
      1 C          63.6529   90.7726   12.6999 C.2     1  UNL1        0.2257
      2 O          62.9935   91.5991   11.6360 O.2     1  UNL1       -0.2749
      3 N          63.4833   89.2822   12.7047 N.am    1  UNL1       -0.2760
      4 C          62.6542   88.6183   11.6455 C.3     1  UNL1        0.1149
      5 C          62.4846   87.1279   11.6503 C.3     1  UNL1        0.1141
      6 N          63.1440   86.3015   12.7142 N.pl3   1  UNL1       -0.2846
      7 C          63.9730   86.9653   13.7734 C.3     1  UNL1        0.1141
      8 C          64.1426   88.4557   13.7686 C.3     1  UNL1        0.1149
      9 C          62.9743   84.8111   12.7190 C.ar    1  UNL1        0.1631
     10 N          62.5069   83.9806   13.8774 N.ar    1  UNL1       -0.2241
     11 C          62.4860   82.5458   13.4405 C.ar    1  UNL1        0.0892
     12 C          62.1118   81.2833   14.1588 C.ar    1  UNL1        0.0197
     13 C          62.1922   79.9644   13.4488 C.ar    1  UNL1        0.0016
     14 C          62.6467   79.9081   12.0204 C.ar    1  UNL1        0.0006
     15 C          63.0209   81.1706   11.3021 C.ar    1  UNL1        0.0081
     16 C          62.9406   82.4894   12.0122 C.ar    1  UNL1        0.0497
     17 S          63.2424   83.8895   11.5663 S.2     1  UNL1       -0.0515
     18 C          65.6649   92.2730   13.3710 C.3     1  UNL1        0.0851
     19 C          66.4939   92.9369   14.4302 C.3     1  UNL1        0.0096
     20 C          66.1400   92.7642   15.8776 C.3     1  UNL1        0.0005
     21 C          64.9570   91.9276   16.2657 C.3     1  UNL1        0.0005
     22 C          64.1280   91.2637   15.2065 C.3     1  UNL1        0.0096
     23 C          64.4819   91.4364   13.7591 C.3     1  UNL1        0.0853
     24 N          67.3082   93.1099   11.5409 N.am    1  UNL1       -0.2959
     25 C          66.0188   92.4458   11.9236 C.2     1  UNL1        0.2231
     26 O          65.0835   91.9543   10.8590 O.2     1  UNL1       -0.2751
     27 H          67.9221   93.4325   12.2397 H       1  UNL1        0.1502
     28 C          67.6621   93.2827   10.0936 C.3     1  UNL1        0.1364
     29 C          68.2302   92.9892    8.7366 C.3     1  UNL1        0.0353
     30 C          68.4015   92.0003    9.8514 C.3     1  UNL1        0.0353
     31 N          66.4292   95.9675    9.5726 N.1     1  UNL1       -0.1943
     32 C          67.0457   94.6251    9.8331 C.1     1  UNL1        0.0896
@<TRIPOS>BOND
     1    31    32    3
     2    32    28    1
     3    28    24    1
     4    24    25   am
     5    25    26    2
     6    18    25    1
     7    18    19    1
     8    19    20    1
     9    20    21    1
    10    21    22    1
    11    22    23    1
    12    23     1    1
    13     1     2    2
    14     1     3   am
    15     3     4    1
    16     4     5    1
    17     5     6    1
    18     6     9    1
    19     9    10   ar
    20    10    11   ar
    21    11    12   ar
    22    12    13   ar
    23    13    14   ar
    24    14    15   ar
    25    15    16   ar
    26    16    17   ar
    27     6     7    1
    28     7     8    1
    29    28    29    1
    30    29    30    1
    31    30    28    1
    32    23    18    1
    33     8     3    1
    34    17     9   ar
    35    16    11   ar
    36    24    27    1
@<TRIPOS>MOLECULE
*****
 32 36 0 0 0
SMALL
GASTEIGER

@<TRIPOS>ATOM
      1 C          64.0490   90.2768   15.6314 C.2     1  UNL1        0.2257
      2 O          63.6273   90.8799   16.9385 O.2     1  UNL1       -0.2749
      3 N          63.8223   88.8170   15.3713 N.am    1  UNL1       -0.2760
      4 C          63.1741   87.9604   16.4181 C.3     1  UNL1        0.1149
      5 C          62.9475   86.5006   16.1580 C.3     1  UNL1        0.1141
      6 N          63.3691   85.8974   14.8510 N.pl3   1  UNL1       -0.2846
      7 C          64.0173   86.7540   13.8041 C.3     1  UNL1        0.1141
      8 C          64.2440   88.2138   14.0643 C.3     1  UNL1        0.1149
      9 C          63.1425   84.4376   14.5908 C.ar    1  UNL1        0.1631
     10 N          61.8253   83.7235   14.6618 N.ar    1  UNL1       -0.2241
     11 C          62.0620   82.2802   14.3288 C.ar    1  UNL1        0.0892
     12 C          61.1340   81.1049   14.2419 C.ar    1  UNL1        0.0197
     13 C          61.6695   79.7518   13.8782 C.ar    1  UNL1        0.0016
     14 C          63.1330   79.5740   13.6015 C.ar    1  UNL1        0.0006
     15 C          64.0610   80.7492   13.6884 C.ar    1  UNL1        0.0081
     16 C          63.5255   82.1023   14.0521 C.ar    1  UNL1        0.0497
     17 S          64.1932   83.4357   14.2140 S.2     1  UNL1       -0.0515
     18 C          64.1267   91.1842   13.1982 C.3     1  UNL1        0.0851
     19 C          64.7750   92.0408   12.1513 C.3     1  UNL1        0.0096
     20 C          65.9937   92.8466   12.4908 C.3     1  UNL1        0.0005
     21 C          66.5642   92.7958   13.8772 C.3     1  UNL1        0.0005
     22 C          65.9160   91.9392   14.9240 C.3     1  UNL1        0.0096
     23 C          64.6972   91.1334   14.5846 C.3     1  UNL1        0.0853
     24 N          62.7167   89.8588   11.4647 N.am    1  UNL1       -0.2959
     25 C          62.9080   90.3784   12.8588 C.2     1  UNL1        0.2231
     26 O          61.8804   90.0921   13.9134 O.2     1  UNL1       -0.2751
     27 H          63.3912   90.0466   10.7725 H       1  UNL1        0.1502
     28 C          61.4980   89.0530   11.1252 C.3     1  UNL1        0.1364
     29 C          60.6441   87.8766   10.7550 C.3     1  UNL1        0.0353
     30 C          62.1253   87.7062   10.9188 C.3     1  UNL1        0.0353
     31 N          59.3968   91.1868   11.3022 N.1     1  UNL1       -0.1943
     32 C          60.4473   90.1199   11.2137 C.1     1  UNL1        0.0896
@<TRIPOS>BOND
     1    31    32    3
     2    32    28    1
     3    28    24    1
     4    24    25   am
     5    25    26    2
     6    18    25    1
     7    18    19    1
     8    19    20    1
     9    20    21    1
    10    21    22    1
    11    22    23    1
    12    23     1    1
    13     1     2    2
    14     1     3   am
    15     3     4    1
    16     4     5    1
    17     5     6    1
    18     6     9    1
    19     9    10   ar
    20    10    11   ar
    21    11    12   ar
    22    12    13   ar
    23    13    14   ar
    24    14    15   ar
    25    15    16   ar
    26    16    17   ar
    27     6     7    1
    28     7     8    1
    29    28    29    1
    30    29    30    1
    31    30    28    1
    32    23    18    1
    33     8     3    1
    34    17     9   ar
    35    16    11   ar
    36    24    27    1
@<TRIPOS>MOLECULE
*****
 32 36 0 0 0
SMALL
GASTEIGER

@<TRIPOS>ATOM
      1 C          60.9450   95.8272   -0.6484 C.2     1  UNL1        0.2257
      2 O          60.5242   96.5867    0.5747 O.2     1  UNL1       -0.2749
      3 N          59.9664   94.9319   -1.3490 N.am    1  UNL1       -0.2760
      4 C          58.5670   94.7960   -0.8264 C.3     1  UNL1        0.1149
      5 C          57.5884   93.9007   -1.5269 C.3     1  UNL1        0.1141
      6 N          58.0093   93.1412   -2.7501 N.pl3   1  UNL1       -0.2846
      7 C          59.4087   93.2771   -3.2726 C.3     1  UNL1        0.1141
      8 C          60.3873   94.1724   -2.5721 C.3     1  UNL1        0.1149
      9 C          57.0307   92.2459   -3.4506 C.ar    1  UNL1        0.1631
     10 N          56.3002   91.0878   -2.8380 N.ar    1  UNL1       -0.2241
     11 C          55.4288   90.4776   -3.8955 C.ar    1  UNL1        0.0892
     12 C          54.4853   89.3118   -3.8691 C.ar    1  UNL1        0.0197
     13 C          53.7339   88.9269   -5.1088 C.ar    1  UNL1        0.0016
     14 C          53.9259   89.7078   -6.3751 C.ar    1  UNL1        0.0006
     15 C          54.8693   90.8736   -6.4015 C.ar    1  UNL1        0.0081
     16 C          55.6208   91.2585   -5.1617 C.ar    1  UNL1        0.0497
     17 S          56.6108   92.3513   -4.8868 S.2     1  UNL1       -0.0515
     18 C          63.4881   95.3467   -0.4213 C.3     1  UNL1        0.0851
     19 C          64.8876   95.4826   -0.9439 C.3     1  UNL1        0.0096
     20 C          65.1433   96.2348   -2.2162 C.3     1  UNL1        0.0005
     21 C          63.9996   96.8512   -2.9659 C.3     1  UNL1        0.0005
     22 C          62.6002   96.7153   -2.4434 C.3     1  UNL1        0.0096
     23 C          62.3444   95.9630   -1.1710 C.3     1  UNL1        0.0853
     24 N          62.6382   93.2181    0.8020 N.am    1  UNL1       -0.2959
     25 C          63.2324   94.5945    0.8510 C.2     1  UNL1        0.2231
     26 O          63.5709   95.2187    2.1722 O.2     1  UNL1       -0.2751
     27 H          62.4161   92.8084   -0.0652 H       1  UNL1        0.1502
     28 C          62.3825   92.4659    2.0743 C.3     1  UNL1        0.1364
     29 C          62.6303   91.6010    3.2746 C.3     1  UNL1        0.0353
     30 C          63.7434   91.8802    2.3087 C.3     1  UNL1        0.0353
     31 N          59.4831   93.1147    2.4893 N.1     1  UNL1       -0.1943
     32 C          60.9328   92.7903    2.2818 C.1     1  UNL1        0.0896
@<TRIPOS>BOND
     1    31    32    3
     2    32    28    1
     3    28    24    1
     4    24    25   am
     5    25    26    2
     6    18    25    1
     7    18    19    1
     8    19    20    1
     9    20    21    1
    10    21    22    1
    11    22    23    1
    12    23     1    1
    13     1     2    2
    14     1     3   am
    15     3     4    1
    16     4     5    1
    17     5     6    1
    18     6     9    1
    19     9    10   ar
    20    10    11   ar
    21    11    12   ar
    22    12    13   ar
    23    13    14   ar
    24    14    15   ar
    25    15    16   ar
    26    16    17   ar
    27     6     7    1
    28     7     8    1
    29    28    29    1
    30    29    30    1
    31    30    28    1
    32    23    18    1
    33     8     3    1
    34    17     9   ar
    35    16    11   ar
    36    24    27    1
@<TRIPOS>MOLECULE
*****
 32 36 0 0 0
SMALL
GASTEIGER

@<TRIPOS>ATOM
      1 C          61.0904   95.9385   -1.0856 C.2     1  UNL1        0.2257
      2 O          61.4754   96.6728    0.1643 O.2     1  UNL1       -0.2749
      3 N          59.6709   95.9740   -1.5693 N.am    1  UNL1       -0.2760
      4 C          58.6365   96.7438   -0.8030 C.3     1  UNL1        0.1149
      5 C          57.2171   96.7793   -1.2867 C.3     1  UNL1        0.1141
      6 N          56.8320   96.0449   -2.5366 N.pl3   1  UNL1       -0.2846
      7 C          57.8665   95.2751   -3.3029 C.3     1  UNL1        0.1141
      8 C          59.2859   95.2396   -2.8192 C.3     1  UNL1        0.1149
      9 C          55.4126   96.0804   -3.0203 C.ar    1  UNL1        0.1631
     10 N          54.1865   95.9504   -2.1660 N.ar    1  UNL1       -0.2241
     11 C          52.9862   96.0418   -3.0609 C.ar    1  UNL1        0.0892
     12 C          51.5148   95.9792   -2.7761 C.ar    1  UNL1        0.0197
     13 C          50.5277   96.1032   -3.8986 C.ar    1  UNL1        0.0016
     14 C          51.0119   96.2898   -5.3060 C.ar    1  UNL1        0.0006
     15 C          52.4833   96.3523   -5.5908 C.ar    1  UNL1        0.0081
     16 C          53.4704   96.2283   -4.4683 C.ar    1  UNL1        0.0497
     17 S          54.9700   96.2522   -4.4432 S.2     1  UNL1       -0.0515
     18 C          62.4665   93.7649   -1.4484 C.3     1  UNL1        0.0851
     19 C          63.5010   92.9950   -2.2147 C.3     1  UNL1        0.0096
     20 C          64.1937   93.6288   -3.3845 C.3     1  UNL1        0.0005
     21 C          63.8519   95.0325   -3.7880 C.3     1  UNL1        0.0005
     22 C          62.8175   95.8024   -3.0218 C.3     1  UNL1        0.0096
     23 C          62.1248   95.1686   -1.8519 C.3     1  UNL1        0.0853
     24 N          62.0226   93.6446    1.1086 N.am    1  UNL1       -0.2959
     25 C          61.7739   93.1311   -0.2786 C.2     1  UNL1        0.2231
     26 O          60.8325   91.9837   -0.4960 O.2     1  UNL1       -0.2751
     27 H          62.6405   94.3977    1.2513 H       1  UNL1        0.1502
     28 C          61.3300   93.0108    2.2784 C.3     1  UNL1        0.1364
     29 C          60.2582   92.6912    3.2781 C.3     1  UNL1        0.0353
     30 C          59.9980   93.6954    2.1947 C.3     1  UNL1        0.0353
     31 N          63.5129   91.2012    3.2584 N.1     1  UNL1       -0.1943
     32 C          62.4215   92.1060    2.7684 C.1     1  UNL1        0.0896
@<TRIPOS>BOND
     1    31    32    3
     2    32    28    1
     3    28    24    1
     4    24    25   am
     5    25    26    2
     6    18    25    1
     7    18    19    1
     8    19    20    1
     9    20    21    1
    10    21    22    1
    11    22    23    1
    12    23     1    1
    13     1     2    2
    14     1     3   am
    15     3     4    1
    16     4     5    1
    17     5     6    1
    18     6     9    1
    19     9    10   ar
    20    10    11   ar
    21    11    12   ar
    22    12    13   ar
    23    13    14   ar
    24    14    15   ar
    25    15    16   ar
    26    16    17   ar
    27     6     7    1
    28     7     8    1
    29    28    29    1
    30    29    30    1
    31    30    28    1
    32    23    18    1
    33     8     3    1
    34    17     9   ar
    35    16    11   ar
    36    24    27    1
@<TRIPOS>MOLECULE
*****
 32 36 0 0 0
SMALL
GASTEIGER

@<TRIPOS>ATOM
      1 C          60.4199   94.3132    1.8477 C.2     1  UNL1        0.2257
      2 O          60.1219   95.5043    2.7092 O.2     1  UNL1       -0.2749
      3 N          59.6858   94.1210    0.5538 N.am    1  UNL1       -0.2760
      4 C          58.6538   95.1199    0.1214 C.3     1  UNL1        0.1149
      5 C          57.9198   94.9277   -1.1725 C.3     1  UNL1        0.1141
      6 N          58.2177   93.7366   -2.0341 N.pl3   1  UNL1       -0.2846
      7 C          59.2498   92.7376   -1.6017 C.3     1  UNL1        0.1141
      8 C          59.9838   92.9298   -0.3078 C.3     1  UNL1        0.1149
      9 C          57.4837   93.5444   -3.3280 C.ar    1  UNL1        0.1631
     10 N          56.7467   94.6058   -4.0897 N.ar    1  UNL1       -0.2241
     11 C          56.1653   93.9745   -5.3199 C.ar    1  UNL1        0.0892
     12 C          55.3408   94.5339   -6.4411 C.ar    1  UNL1        0.0197
     13 C          54.8939   93.6416   -7.5610 C.ar    1  UNL1        0.0016
     14 C          55.2716   92.1899   -7.5596 C.ar    1  UNL1        0.0006
     15 C          56.0961   91.6305   -6.4384 C.ar    1  UNL1        0.0081
     16 C          56.5429   92.5228   -5.3185 C.ar    1  UNL1        0.0497
     17 S          57.3578   92.2570   -4.0875 S.2     1  UNL1       -0.0515
     18 C          62.8569   93.4166    1.7649 C.3     1  UNL1        0.0851
     19 C          63.8889   92.4175    2.1973 C.3     1  UNL1        0.0096
     20 C          63.5159   91.3162    3.1448 C.3     1  UNL1        0.0005
     21 C          62.1109   91.2139    3.6600 C.3     1  UNL1        0.0005
     22 C          61.0789   92.2128    3.2277 C.3     1  UNL1        0.0096
     23 C          61.4519   93.3142    2.2800 C.3     1  UNL1        0.0853
     24 N          63.2592   94.2586   -0.6598 N.am    1  UNL1       -0.2959
     25 C          63.2299   94.5179    0.8173 C.2     1  UNL1        0.2231
     26 O          63.5737   95.8785    1.3469 O.2     1  UNL1       -0.2751
     27 H          63.0336   93.3655   -1.0074 H       1  UNL1        0.1502
     28 C          63.6322   95.3599   -1.6074 C.3     1  UNL1        0.1364
     29 C          64.4692   96.3683   -2.3371 C.3     1  UNL1        0.0353
     30 C          65.0977   95.4748   -1.3093 C.3     1  UNL1        0.0353
     31 N          60.9601   95.8951   -2.8618 N.1     1  UNL1       -0.1943
     32 C          62.2961   95.6275   -2.2346 C.1     1  UNL1        0.0896
@<TRIPOS>BOND
     1    31    32    3
     2    32    28    1
     3    28    24    1
     4    24    25   am
     5    25    26    2
     6    18    25    1
     7    18    19    1
     8    19    20    1
     9    20    21    1
    10    21    22    1
    11    22    23    1
    12    23     1    1
    13     1     2    2
    14     1     3   am
    15     3     4    1
    16     4     5    1
    17     5     6    1
    18     6     9    1
    19     9    10   ar
    20    10    11   ar
    21    11    12   ar
    22    12    13   ar
    23    13    14   ar
    24    14    15   ar
    25    15    16   ar
    26    16    17   ar
    27     6     7    1
    28     7     8    1
    29    28    29    1
    30    29    30    1
    31    30    28    1
    32    23    18    1
    33     8     3    1
    34    17     9   ar
    35    16    11   ar
    36    24    27    1
