@<TRIPOS>MOLECULE
*****
 39 41 0 0 0
SMALL
GASTEIGER

@<TRIPOS>ATOM
      1 C          63.2103   83.4038   11.4141 C.3     1  UNL1        0.0486
      2 C          63.9512   83.1573   10.1334 C.3     1  UNL1        0.0061
      3 C          63.8678   84.1534    9.0150 C.3     1  UNL1        0.0217
      4 C          63.0435   85.3961    9.1774 C.3     1  UNL1        0.0949
      5 N          62.3026   85.6426   10.4581 N.am    1  UNL1       -0.2641
      6 C          61.4783   86.8852   10.6204 C.2     1  UNL1        0.3040
      7 O          60.7373   87.1317   11.9012 O.2     1  UNL1       -0.2526
      8 N          61.3949   87.8813    9.5021 N.am    1  UNL1       -0.2874
      9 C          62.3860   84.6464   11.5765 C.3     1  UNL1        0.0976
     10 H          61.8812   87.7195    8.6615 H       1  UNL1        0.1510
     11 C          63.2937   82.4077   12.5325 C.3     1  UNL1        0.1106
     12 O          62.8906   81.3140   11.5884 O.3     1  UNL1       -0.3826
     13 H          62.8546   80.4709   12.0668 H       1  UNL1        0.2107
     14 C          63.6969   83.5014   13.4767 C.ar    1  UNL1        0.0301
     15 C          65.0382   84.1577   13.3352 C.ar    1  UNL1        0.0002
     16 C          65.4414   85.2513   14.2793 C.ar    1  UNL1        0.0008
     17 C          64.5032   85.6887   15.3648 C.ar    1  UNL1        0.0136
     18 C          63.1618   85.0324   15.5063 C.ar    1  UNL1        0.0848
     19 CL         62.2236   85.4698   16.5919 Cl      1  UNL1       -0.0799
     20 C          62.7586   83.9387   14.5622 C.ar    1  UNL1        0.1487
     21 F          61.4173   83.2825   14.7036 F       1  UNL1       -0.2035
     22 C          63.3771   81.4116   13.6508 C.3     1  UNL1        0.0314
     23 C          62.8345   80.0258   13.4629 C.3     1  UNL1        0.0053
     24 C          61.4924   79.6631   14.0260 C.3     1  UNL1        0.0322
     25 C          60.4079   80.6965   14.1047 C.3     1  UNL1        0.1423
     26 C          58.6728   78.8501   14.6792 C.3     1  UNL1        0.1741
     27 O          59.0235   80.3003   14.5245 O.3     1  UNL1       -0.3511
     28 C          60.5705   89.1239    9.6644 C.3     1  UNL1        0.1063
     29 C          61.0263   90.2103   10.5930 C.3     1  UNL1        0.0707
     30 N          60.0555   90.8342   11.5512 N.3     1  UNL1       -0.3208
     31 H          59.1387   90.4023   11.4358 H       1  UNL1        0.1189
     32 H          59.9865   91.8342   11.3625 H       1  UNL1        0.1189
     33 C          62.4529   90.6728   10.5632 C.3     1  UNL1        0.0172
     34 C          63.3027   90.5635   11.7944 C.3     1  UNL1        0.0014
     35 C          64.2511   91.6693   12.1517 C.3     1  UNL1        0.0000
     36 C          65.1009   91.5600   13.3830 C.3     1  UNL1        0.0000
     37 C          65.0021   90.3450   14.2570 C.3     1  UNL1        0.0000
     38 C          64.0536   89.2392   13.8997 C.3     1  UNL1        0.0000
     39 C          63.2039   89.3485   12.6684 C.3     1  UNL1        0.0000
@<TRIPOS>BOND
     1    26    27    1
     2    27    25    1
     3    25    24    1
     4    24    23    1
     5    23    22    1
     6    22    11    1
     7    11    12    1
     8    11    14    1
     9    14    15   ar
    10    15    16   ar
    11    16    17   ar
    12    17    18   ar
    13    18    19    1
    14    18    20   ar
    15    20    21    1
    16    11     1    1
    17     1     2    1
    18     2     3    1
    19     3     4    1
    20     4     5    1
    21     5     6   am
    22     6     7    2
    23     6     8   am
    24     8    28    1
    25    28    29    1
    26    29    30    1
    27    29    33    1
    28    33    34    1
    29    34    35    1
    30    35    36    1
    31    36    37    1
    32    37    38    1
    33    38    39    1
    34     5     9    1
    35    20    14   ar
    36     9     1    1
    37    39    34    1
    38    12    13    1
    39     8    10    1
    40    30    31    1
    41    30    32    1
@<TRIPOS>MOLECULE
*****
 39 41 0 0 0
SMALL
GASTEIGER

@<TRIPOS>ATOM
      1 C          61.3665   86.5432    8.8200 C.3     1  UNL1        0.0486
      2 C          62.1185   85.8129    7.7470 C.3     1  UNL1        0.0061
      3 C          63.0977   84.7384    8.1162 C.3     1  UNL1        0.0217
      4 C          63.3250   84.3941    9.5584 C.3     1  UNL1        0.0949
      5 N          62.5730   85.1243   10.6313 N.am    1  UNL1       -0.2641
      6 C          62.8003   84.7800   12.0735 C.2     1  UNL1        0.3040
      7 O          62.0483   85.5103   13.1464 O.2     1  UNL1       -0.2526
      8 N          63.7795   83.7055   12.4427 N.am    1  UNL1       -0.2874
      9 C          61.5937   86.1989   10.2621 C.3     1  UNL1        0.0976
     10 H          64.2731   83.2261   11.7385 H       1  UNL1        0.1510
     11 C          60.3872   87.6178    8.4507 C.3     1  UNL1        0.1106
     12 O          59.8355   86.7420    7.3652 O.3     1  UNL1       -0.3826
     13 H          59.1195   87.2084    6.9061 H       1  UNL1        0.2107
     14 C          60.9390   88.4937    9.5364 C.ar    1  UNL1        0.0301
     15 C          62.2538   89.1893    9.3432 C.ar    1  UNL1        0.0002
     16 C          62.8055   90.0651   10.4287 C.ar    1  UNL1        0.0008
     17 C          62.0424   90.2454   11.7075 C.ar    1  UNL1        0.0136
     18 C          60.7276   89.5497   11.9006 C.ar    1  UNL1        0.0848
     19 CL         59.9645   89.7300   13.1794 Cl      1  UNL1       -0.0799
     20 C          60.1759   88.6739   10.8151 C.ar    1  UNL1        0.1487
     21 F          58.8610   87.9783   11.0083 F       1  UNL1       -0.2035
     22 C          59.4080   88.6924    8.0815 C.3     1  UNL1        0.0314
     23 C          59.0326   88.9035    6.6446 C.3     1  UNL1        0.0053
     24 C          59.3901   90.1878    5.9571 C.3     1  UNL1        0.0322
     25 C          58.3124   91.0455    5.3626 C.3     1  UNL1        0.1423
     26 C          59.7973   92.4937    3.7982 C.3     1  UNL1        0.1741
     27 O          58.6577   92.3779    4.7666 O.3     1  UNL1       -0.3511
     28 C          64.0068   83.3611   13.8848 C.3     1  UNL1        0.1063
     29 C          64.7780   84.2978   14.7670 C.3     1  UNL1        0.0707
     30 N          66.2431   84.5152   14.5306 N.3     1  UNL1       -0.3208
     31 H          66.5467   83.9517   13.7364 H       1  UNL1        0.1189
     32 H          66.7662   84.2406   15.3621 H       1  UNL1        0.1189
     33 C          64.0839   85.0168   15.8856 C.3     1  UNL1        0.0172
     34 C          63.9102   86.5055   15.8265 C.3     1  UNL1        0.0014
     35 C          64.4585   87.2790   14.6642 C.3     1  UNL1        0.0000
     36 C          64.2848   88.7678   14.6051 C.3     1  UNL1        0.0000
     37 C          63.5629   89.4830   15.7084 C.3     1  UNL1        0.0000
     38 C          63.0146   88.7095   16.8708 C.3     1  UNL1        0.0000
     39 C          63.1883   87.2208   16.9298 C.3     1  UNL1        0.0000
@<TRIPOS>BOND
     1    26    27    1
     2    27    25    1
     3    25    24    1
     4    24    23    1
     5    23    22    1
     6    22    11    1
     7    11    12    1
     8    11    14    1
     9    14    15   ar
    10    15    16   ar
    11    16    17   ar
    12    17    18   ar
    13    18    19    1
    14    18    20   ar
    15    20    21    1
    16    11     1    1
    17     1     2    1
    18     2     3    1
    19     3     4    1
    20     4     5    1
    21     5     6   am
    22     6     7    2
    23     6     8   am
    24     8    28    1
    25    28    29    1
    26    29    30    1
    27    29    33    1
    28    33    34    1
    29    34    35    1
    30    35    36    1
    31    36    37    1
    32    37    38    1
    33    38    39    1
    34     5     9    1
    35    20    14   ar
    36     9     1    1
    37    39    34    1
    38    12    13    1
    39     8    10    1
    40    30    31    1
    41    30    32    1
@<TRIPOS>MOLECULE
*****
 39 41 0 0 0
SMALL
GASTEIGER

@<TRIPOS>ATOM
      1 C          64.9551   91.7387   12.7173 C.3     1  UNL1        0.0486
      2 C          65.3182   91.0006   13.9717 C.3     1  UNL1        0.0061
      3 C          64.6486   89.6981   14.2960 C.3     1  UNL1        0.0217
      4 C          63.6159   89.1337   13.3660 C.3     1  UNL1        0.0949
      5 N          63.2527   89.8718   12.1117 N.am    1  UNL1       -0.2641
      6 C          62.2200   89.3074   11.1817 C.2     1  UNL1        0.3040
      7 O          61.8568   90.0455    9.9274 O.2     1  UNL1       -0.2526
      8 N          61.5504   88.0049   11.5061 N.am    1  UNL1       -0.2874
      9 C          63.9223   91.1743   11.7874 C.3     1  UNL1        0.0976
     10 H          61.7887   87.5205   12.3293 H       1  UNL1        0.1510
     11 C          65.6246   93.0412   12.3930 C.3     1  UNL1        0.1106
     12 O          64.6997   93.2263   11.2268 O.3     1  UNL1       -0.3826
     13 H          64.9086   94.0603   10.7776 H       1  UNL1        0.2107
     14 C          66.5496   92.8561   13.5593 C.ar    1  UNL1        0.0301
     15 C          66.0872   93.1974   14.9449 C.ar    1  UNL1        0.0002
     16 C          67.0121   93.0124   16.1111 C.ar    1  UNL1        0.0008
     17 C          68.3995   92.4860   15.8919 C.ar    1  UNL1        0.0136
     18 C          68.8619   92.1447   14.5064 C.ar    1  UNL1        0.0848
     19 CL         70.2494   91.6183   14.2872 Cl      1  UNL1       -0.0799
     20 C          67.9370   92.3297   13.3401 C.ar    1  UNL1        0.1487
     21 F          68.3995   91.9884   11.9546 F       1  UNL1       -0.2035
     22 C          66.2942   94.3436   12.0687 C.3     1  UNL1        0.0314
     23 C          65.8909   95.1097   10.8437 C.3     1  UNL1        0.0053
     24 C          66.9404   95.6765    9.9342 C.3     1  UNL1        0.0322
     25 C          67.6803   94.7759    8.9899 C.3     1  UNL1        0.1423
     26 C          68.8320   92.4474    8.9530 C.3     1  UNL1        0.1741
     27 O          68.7236   93.8343    9.5141 O.3     1  UNL1       -0.3511
     28 C          60.5176   87.4406   10.5761 C.3     1  UNL1        0.1063
     29 C          60.9352   86.5521    9.4418 C.3     1  UNL1        0.0707
     30 N          59.9295   86.1254    8.4140 N.3     1  UNL1       -0.3208
     31 H          59.0203   86.5284    8.6401 H       1  UNL1        0.1189
     32 H          59.8588   85.1079    8.4094 H       1  UNL1        0.1189
     33 C          62.3584   86.0904    9.3356 C.3     1  UNL1        0.0172
     34 C          62.8197   84.8960   10.1169 C.3     1  UNL1        0.0014
     35 C          62.3811   84.7156   11.5399 C.3     1  UNL1        0.0000
     36 C          62.8424   83.5211   12.3212 C.3     1  UNL1        0.0000
     37 C          63.7423   82.5070   11.6795 C.3     1  UNL1        0.0000
     38 C          64.1809   82.6874   10.2564 C.3     1  UNL1        0.0000
     39 C          63.7196   83.8819    9.4751 C.3     1  UNL1        0.0000
@<TRIPOS>BOND
     1    26    27    1
     2    27    25    1
     3    25    24    1
     4    24    23    1
     5    23    22    1
     6    22    11    1
     7    11    12    1
     8    11    14    1
     9    14    15   ar
    10    15    16   ar
    11    16    17   ar
    12    17    18   ar
    13    18    19    1
    14    18    20   ar
    15    20    21    1
    16    11     1    1
    17     1     2    1
    18     2     3    1
    19     3     4    1
    20     4     5    1
    21     5     6   am
    22     6     7    2
    23     6     8   am
    24     8    28    1
    25    28    29    1
    26    29    30    1
    27    29    33    1
    28    33    34    1
    29    34    35    1
    30    35    36    1
    31    36    37    1
    32    37    38    1
    33    38    39    1
    34     5     9    1
    35    20    14   ar
    36     9     1    1
    37    39    34    1
    38    12    13    1
    39     8    10    1
    40    30    31    1
    41    30    32    1
@<TRIPOS>MOLECULE
*****
 39 41 0 0 0
SMALL
GASTEIGER

@<TRIPOS>ATOM
      1 C          62.5096   87.4902   11.2912 C.3     1  UNL1        0.0486
      2 C          61.9343   88.2548   10.1361 C.3     1  UNL1        0.0061
      3 C          62.1638   89.7330   10.0263 C.3     1  UNL1        0.0217
      4 C          62.9687   90.4467   11.0717 C.3     1  UNL1        0.0949
      5 N          63.5441   89.6822   12.2268 N.am    1  UNL1       -0.2641
      6 C          64.3490   90.3958   13.2722 C.2     1  UNL1        0.3040
      7 O          64.9243   89.6312   14.4274 O.2     1  UNL1       -0.2526
      8 N          64.5785   91.8741   13.1624 N.am    1  UNL1       -0.2874
      9 C          63.3145   88.2038   12.3366 C.3     1  UNL1        0.0976
     10 H          64.2009   92.3759   12.4043 H       1  UNL1        0.1510
     11 C          62.2801   86.0119   11.4010 C.3     1  UNL1        0.1106
     12 O          62.9168   86.0139   12.7591 O.3     1  UNL1       -0.3826
     13 H          62.9141   85.1131   13.1188 H       1  UNL1        0.2107
     14 C          61.6434   86.0099   10.0428 C.ar    1  UNL1        0.0301
     15 C          60.2874   86.6213    9.8493 C.ar    1  UNL1        0.0002
     16 C          59.6506   86.6193    8.4912 C.ar    1  UNL1        0.0008
     17 C          60.3699   86.0059    7.3266 C.ar    1  UNL1        0.0136
     18 C          61.7258   85.3945    7.5201 C.ar    1  UNL1        0.0848
     19 CL         62.4451   84.7810    6.3554 Cl      1  UNL1       -0.0799
     20 C          62.3626   85.3965    8.8782 C.ar    1  UNL1        0.1487
     21 F          63.7186   84.7850    9.0717 F       1  UNL1       -0.2035
     22 C          62.0506   84.5337   11.5108 C.3     1  UNL1        0.0314
     23 C          63.0445   83.6718   12.2314 C.3     1  UNL1        0.0053
     24 C          62.9948   82.1806   12.0776 C.3     1  UNL1        0.0322
     25 C          63.5381   81.2963   13.1607 C.3     1  UNL1        0.1423
     26 C          61.1528   80.9744   14.1386 C.3     1  UNL1        0.1741
     27 O          62.6400   80.8266   14.2665 O.3     1  UNL1       -0.3511
     28 C          65.3834   92.5878   14.2078 C.3     1  UNL1        0.1063
     29 C          66.4752   93.5316   13.7989 C.3     1  UNL1        0.0707
     30 N          67.7097   93.6604   14.6411 N.3     1  UNL1       -0.3208
     31 H          67.6382   93.0386   15.4465 H       1  UNL1        0.1189
     32 H          67.8029   94.6239   14.9627 H       1  UNL1        0.1189
     33 C          66.3324   94.3467   12.5478 C.3     1  UNL1        0.0172
     34 C          66.9807   93.8875   11.2755 C.3     1  UNL1        0.0014
     35 C          67.1245   94.8359   10.1223 C.3     1  UNL1        0.0000
     36 C          67.7728   94.3768    8.8499 C.3     1  UNL1        0.0000
     37 C          68.2774   92.9692    8.7308 C.3     1  UNL1        0.0000
     38 C          68.1336   92.0208    9.8840 C.3     1  UNL1        0.0000
     39 C          67.4853   92.4800   11.1563 C.3     1  UNL1        0.0000
@<TRIPOS>BOND
     1    26    27    1
     2    27    25    1
     3    25    24    1
     4    24    23    1
     5    23    22    1
     6    22    11    1
     7    11    12    1
     8    11    14    1
     9    14    15   ar
    10    15    16   ar
    11    16    17   ar
    12    17    18   ar
    13    18    19    1
    14    18    20   ar
    15    20    21    1
    16    11     1    1
    17     1     2    1
    18     2     3    1
    19     3     4    1
    20     4     5    1
    21     5     6   am
    22     6     7    2
    23     6     8   am
    24     8    28    1
    25    28    29    1
    26    29    30    1
    27    29    33    1
    28    33    34    1
    29    34    35    1
    30    35    36    1
    31    36    37    1
    32    37    38    1
    33    38    39    1
    34     5     9    1
    35    20    14   ar
    36     9     1    1
    37    39    34    1
    38    12    13    1
    39     8    10    1
    40    30    31    1
    41    30    32    1
@<TRIPOS>MOLECULE
*****
 39 41 0 0 0
SMALL
GASTEIGER

@<TRIPOS>ATOM
      1 C          64.9910   91.9216   12.4015 C.3     1  UNL1        0.0486
      2 C          65.3225   91.2929   13.7224 C.3     1  UNL1        0.0061
      3 C          64.6203   90.0396   14.1538 C.3     1  UNL1        0.0217
      4 C          63.5865   89.4150   13.2644 C.3     1  UNL1        0.0949
      5 N          63.2549   90.0437   11.9435 N.am    1  UNL1       -0.2641
      6 C          62.2211   89.4191   11.0540 C.2     1  UNL1        0.3040
      7 O          61.8896   90.0478    9.7331 O.2     1  UNL1       -0.2526
      8 N          61.5189   88.1658   11.4855 N.am    1  UNL1       -0.2874
      9 C          63.9572   91.2970   11.5120 C.3     1  UNL1        0.0976
     10 H          61.7365   87.7532   12.3524 H       1  UNL1        0.1510
     11 C          65.6932   93.1749   11.9701 C.3     1  UNL1        0.1106
     12 O          64.4980   93.5625   11.1508 O.3     1  UNL1       -0.3826
     13 H          64.6685   94.4102   10.7111 H       1  UNL1        0.2107
     14 C          66.8884   92.7873   12.7894 C.ar    1  UNL1        0.0301
     15 C          67.8915   91.8167   12.2400 C.ar    1  UNL1        0.0002
     16 C          69.0867   91.4291   13.0592 C.ar    1  UNL1        0.0008
     17 C          69.2788   92.0120   14.4279 C.ar    1  UNL1        0.0136
     18 C          68.2757   92.9826   14.9773 C.ar    1  UNL1        0.0848
     19 CL         68.4679   93.5655   16.3460 Cl      1  UNL1       -0.0799
     20 C          67.0805   93.3702   14.1580 C.ar    1  UNL1        0.1487
     21 F          66.0774   94.3407   14.7074 F       1  UNL1       -0.2035
     22 C          66.3954   94.4281   11.5386 C.3     1  UNL1        0.0314
     23 C          65.8702   95.2207   10.3783 C.3     1  UNL1        0.0053
     24 C          66.8205   95.7859    9.3647 C.3     1  UNL1        0.0322
     25 C          67.7496   94.8752    8.6180 C.3     1  UNL1        0.1423
     26 C          68.7458   92.5117    9.0316 C.3     1  UNL1        0.1741
     27 O          68.6798   93.9712    9.3713 O.3     1  UNL1       -0.3511
     28 C          60.4851   87.5412   10.5960 C.3     1  UNL1        0.1063
     29 C          60.9067   86.6338    9.4784 C.3     1  UNL1        0.0707
     30 N          59.9006   86.1745    8.4651 N.3     1  UNL1       -0.3208
     31 H          58.9880   86.5721    8.6877 H       1  UNL1        0.1189
     32 H          59.8412   85.1564    8.4823 H       1  UNL1        0.1189
     33 C          62.3344   86.1857    9.3742 C.3     1  UNL1        0.0172
     34 C          62.7992   84.9791   10.1344 C.3     1  UNL1        0.0014
     35 C          63.6576   83.9515    9.4583 C.3     1  UNL1        0.0000
     36 C          64.1224   82.7448   10.2185 C.3     1  UNL1        0.0000
     37 C          63.7288   82.5657   11.6548 C.3     1  UNL1        0.0000
     38 C          62.8703   83.5934   12.3309 C.3     1  UNL1        0.0000
     39 C          62.4055   84.8000   11.5707 C.3     1  UNL1        0.0000
@<TRIPOS>BOND
     1    26    27    1
     2    27    25    1
     3    25    24    1
     4    24    23    1
     5    23    22    1
     6    22    11    1
     7    11    12    1
     8    11    14    1
     9    14    15   ar
    10    15    16   ar
    11    16    17   ar
    12    17    18   ar
    13    18    19    1
    14    18    20   ar
    15    20    21    1
    16    11     1    1
    17     1     2    1
    18     2     3    1
    19     3     4    1
    20     4     5    1
    21     5     6   am
    22     6     7    2
    23     6     8   am
    24     8    28    1
    25    28    29    1
    26    29    30    1
    27    29    33    1
    28    33    34    1
    29    34    35    1
    30    35    36    1
    31    36    37    1
    32    37    38    1
    33    38    39    1
    34     5     9    1
    35    20    14   ar
    36     9     1    1
    37    39    34    1
    38    12    13    1
    39     8    10    1
    40    30    31    1
    41    30    32    1
@<TRIPOS>MOLECULE
*****
 39 41 0 0 0
SMALL
GASTEIGER

@<TRIPOS>ATOM
      1 C          64.6895   91.8634   11.9567 C.3     1  UNL1        0.0486
      2 C          64.1559   92.4508   10.6837 C.3     1  UNL1        0.0061
      3 C          63.2298   91.6490    9.8181 C.3     1  UNL1        0.0217
      4 C          62.8373   90.2597   10.2253 C.3     1  UNL1        0.0949
      5 N          63.3708   89.6723   11.4981 N.am    1  UNL1       -0.2641
      6 C          62.9783   88.2830   11.9053 C.2     1  UNL1        0.3040
      7 O          63.5119   87.6955   13.1782 O.2     1  UNL1       -0.2526
      8 N          62.0522   87.4811   11.0396 N.am    1  UNL1       -0.2874
      9 C          64.2969   90.4741   12.3639 C.3     1  UNL1        0.0976
     10 H          61.7020   87.8667   10.2042 H       1  UNL1        0.1510
     11 C          65.6155   92.6652   12.8223 C.3     1  UNL1        0.1106
     12 O          64.8000   92.3049   14.0286 O.3     1  UNL1       -0.3826
     13 H          65.1888   92.7161   14.8164 H       1  UNL1        0.2107
     14 C          66.4311   93.0256   11.6161 C.ar    1  UNL1        0.0301
     15 C          67.2770   91.9848   10.9444 C.ar    1  UNL1        0.0002
     16 C          68.0926   92.3451    9.7383 C.ar    1  UNL1        0.0008
     17 C          68.0623   93.7463    9.2037 C.ar    1  UNL1        0.0136
     18 C          67.2164   94.7871    9.8754 C.ar    1  UNL1        0.0848
     19 CL         67.1861   96.1883    9.3408 Cl      1  UNL1       -0.0799
     20 C          66.4008   94.4268   11.0816 C.ar    1  UNL1        0.1487
     21 F          65.5549   95.4676   11.7532 F       1  UNL1       -0.2035
     22 C          66.5416   93.4671   13.6880 C.3     1  UNL1        0.0314
     23 C          66.5729   93.2344   15.1696 C.3     1  UNL1        0.0053
     24 C          67.7765   92.6032   15.8043 C.3     1  UNL1        0.0322
     25 C          69.1275   93.2348   15.6430 C.3     1  UNL1        0.1423
     26 C          69.5491   91.8038   13.5160 C.3     1  UNL1        0.1741
     27 O          69.9842   92.8824   14.4632 O.3     1  UNL1       -0.3511
     28 C          61.6597   86.0918   11.4468 C.3     1  UNL1        0.1063
     29 C          62.6259   84.9578   11.2719 C.3     1  UNL1        0.0707
     30 N          63.0242   84.5176    9.8944 N.3     1  UNL1       -0.3208
     31 H          62.5467   85.0943    9.2018 H       1  UNL1        0.1189
     32 H          62.7637   83.5405    9.7611 H       1  UNL1        0.1189
     33 C          63.1937   84.2641   12.4745 C.3     1  UNL1        0.0172
     34 C          62.8134   82.8436   12.7701 C.3     1  UNL1        0.0014
     35 C          63.1813   81.7530   11.8083 C.3     1  UNL1        0.0000
     36 C          62.8009   80.3324   12.1039 C.3     1  UNL1        0.0000
     37 C          62.0526   80.0025   13.3614 C.3     1  UNL1        0.0000
     38 C          61.6847   81.0931   14.3232 C.3     1  UNL1        0.0000
     39 C          62.0651   82.5136   14.0276 C.3     1  UNL1        0.0000
@<TRIPOS>BOND
     1    26    27    1
     2    27    25    1
     3    25    24    1
     4    24    23    1
     5    23    22    1
     6    22    11    1
     7    11    12    1
     8    11    14    1
     9    14    15   ar
    10    15    16   ar
    11    16    17   ar
    12    17    18   ar
    13    18    19    1
    14    18    20   ar
    15    20    21    1
    16    11     1    1
    17     1     2    1
    18     2     3    1
    19     3     4    1
    20     4     5    1
    21     5     6   am
    22     6     7    2
    23     6     8   am
    24     8    28    1
    25    28    29    1
    26    29    30    1
    27    29    33    1
    28    33    34    1
    29    34    35    1
    30    35    36    1
    31    36    37    1
    32    37    38    1
    33    38    39    1
    34     5     9    1
    35    20    14   ar
    36     9     1    1
    37    39    34    1
    38    12    13    1
    39     8    10    1
    40    30    31    1
    41    30    32    1
@<TRIPOS>MOLECULE
*****
 39 41 0 0 0
SMALL
GASTEIGER

@<TRIPOS>ATOM
      1 C          64.4328   91.5060   13.0312 C.3     1  UNL1        0.0486
      2 C          65.1245   92.2205   11.9083 C.3     1  UNL1        0.0061
      3 C          64.6016   92.0999   10.5076 C.3     1  UNL1        0.0217
      4 C          63.3870   91.2647   10.2297 C.3     1  UNL1        0.0949
      5 N          62.6953   90.5502   11.3526 N.am    1  UNL1       -0.2641
      6 C          61.4806   89.7150   11.0748 C.2     1  UNL1        0.3040
      7 O          60.7889   89.0004   12.1977 O.2     1  UNL1       -0.2526
      8 N          60.9578   89.5944    9.6741 N.am    1  UNL1       -0.2874
      9 C          63.2181   90.6708   12.7534 C.3     1  UNL1        0.0976
     10 H          61.4118   90.0633    8.9371 H       1  UNL1        0.1510
     11 C          64.9556   91.6266   14.4319 C.3     1  UNL1        0.1106
     12 O          65.3921   93.0332   14.1478 O.3     1  UNL1       -0.3826
     13 H          65.8050   93.4100   14.9406 H       1  UNL1        0.2107
     14 C          64.5191   90.2199   14.7161 C.ar    1  UNL1        0.0301
     15 C          64.8084   89.1305   13.7264 C.ar    1  UNL1        0.0002
     16 C          64.3719   87.7238   14.0105 C.ar    1  UNL1        0.0008
     17 C          63.6462   87.4065   15.2843 C.ar    1  UNL1        0.0136
     18 C          63.3570   88.4959   16.2740 C.ar    1  UNL1        0.0848
     19 CL         62.6312   88.1786   17.5478 Cl      1  UNL1       -0.0799
     20 C          63.7934   89.9026   15.9899 C.ar    1  UNL1        0.1487
     21 F          63.5042   90.9920   16.9796 F       1  UNL1       -0.2035
     22 C          65.4785   91.7472   15.8326 C.3     1  UNL1        0.0314
     23 C          66.5214   92.7752   16.1580 C.3     1  UNL1        0.0053
     24 C          67.9640   92.3758   16.2536 C.3     1  UNL1        0.0322
     25 C          68.8430   92.4429   15.0399 C.3     1  UNL1        0.1423
     26 C          68.6390   91.6648   12.5696 C.3     1  UNL1        0.1741
     27 O          68.2313   92.5893   13.6782 O.3     1  UNL1       -0.3511
     28 C          59.7431   88.7592    9.3963 C.3     1  UNL1        0.1063
     29 C          59.8758   87.4712    8.6388 C.3     1  UNL1        0.0707
     30 N          58.6482   86.7263    8.2052 N.3     1  UNL1       -0.3208
     31 H          57.8173   87.2351    8.5071 H       1  UNL1        0.1189
     32 H          58.6487   85.7966    8.6248 H       1  UNL1        0.1189
     33 C          61.2361   86.9283    8.3150 C.3     1  UNL1        0.0172
     34 C          61.9084   85.9771    9.2601 C.3     1  UNL1        0.0014
     35 C          62.9649   85.0396    8.7553 C.3     1  UNL1        0.0000
     36 C          63.6373   84.0884    9.7003 C.3     1  UNL1        0.0000
     37 C          63.2532   84.0747   11.1503 C.3     1  UNL1        0.0000
     38 C          62.1966   85.0123   11.6551 C.3     1  UNL1        0.0000
     39 C          61.5243   85.9635   10.7100 C.3     1  UNL1        0.0000
@<TRIPOS>BOND
     1    26    27    1
     2    27    25    1
     3    25    24    1
     4    24    23    1
     5    23    22    1
     6    22    11    1
     7    11    12    1
     8    11    14    1
     9    14    15   ar
    10    15    16   ar
    11    16    17   ar
    12    17    18   ar
    13    18    19    1
    14    18    20   ar
    15    20    21    1
    16    11     1    1
    17     1     2    1
    18     2     3    1
    19     3     4    1
    20     4     5    1
    21     5     6   am
    22     6     7    2
    23     6     8   am
    24     8    28    1
    25    28    29    1
    26    29    30    1
    27    29    33    1
    28    33    34    1
    29    34    35    1
    30    35    36    1
    31    36    37    1
    32    37    38    1
    33    38    39    1
    34     5     9    1
    35    20    14   ar
    36     9     1    1
    37    39    34    1
    38    12    13    1
    39     8    10    1
    40    30    31    1
    41    30    32    1
@<TRIPOS>MOLECULE
*****
 39 41 0 0 0
SMALL
GASTEIGER

@<TRIPOS>ATOM
      1 C          64.2847   90.5617   14.4924 C.3     1  UNL1        0.0486
      2 C          63.6671   91.0051   15.7855 C.3     1  UNL1        0.0061
      3 C          63.2270   89.9863   16.7946 C.3     1  UNL1        0.0217
      4 C          63.4045   88.5242   16.5108 C.3     1  UNL1        0.0949
      5 N          64.0221   88.0808   15.2178 N.am    1  UNL1       -0.2641
      6 C          64.1996   86.6186   14.9339 C.2     1  UNL1        0.3040
      7 O          64.8172   86.1752   13.6408 O.2     1  UNL1       -0.2526
      8 N          63.7595   85.5999   15.9431 N.am    1  UNL1       -0.2874
      9 C          64.4622   89.0995   14.2085 C.3     1  UNL1        0.0976
     10 H          63.3541   85.8909   16.7918 H       1  UNL1        0.1510
     11 C          64.7248   91.5804   13.4832 C.3     1  UNL1        0.1106
     12 O          63.5368   91.2482   12.6298 O.3     1  UNL1       -0.3826
     13 H          63.5491   91.7977   11.8305 H       1  UNL1        0.2107
     14 C          65.9128   91.9127   14.3367 C.ar    1  UNL1        0.0301
     15 C          65.7157   92.3635   15.7537 C.ar    1  UNL1        0.0002
     16 C          66.9036   92.6958   16.6071 C.ar    1  UNL1        0.0008
     17 C          68.2886   92.5772   16.0435 C.ar    1  UNL1        0.0136
     18 C          68.4857   92.1264   14.6265 C.ar    1  UNL1        0.0848
     19 CL         69.8708   92.0078   14.0630 Cl      1  UNL1       -0.0799
     20 C          67.2978   91.7941   13.7731 C.ar    1  UNL1        0.1487
     21 F          67.4949   91.3432   12.3561 F       1  UNL1       -0.2035
     22 C          65.1649   92.5992   12.4741 C.3     1  UNL1        0.0314
     23 C          64.9294   92.3574   11.0125 C.3     1  UNL1        0.0053
     24 C          65.8668   92.9382    9.9957 C.3     1  UNL1        0.0322
     25 C          66.9467   93.8862   10.4262 C.3     1  UNL1        0.1423
     26 C          68.8770   92.5677    9.2927 C.3     1  UNL1        0.1741
     27 O          68.2782   93.8696    9.7359 O.3     1  UNL1       -0.3511
     28 C          63.9370   84.1377   15.6592 C.3     1  UNL1        0.1063
     29 C          62.9415   83.4139   14.8017 C.3     1  UNL1        0.0707
     30 N          62.7124   81.9443   14.9961 N.3     1  UNL1       -0.3208
     31 H          63.3125   81.6031   15.7469 H       1  UNL1        0.1189
     32 H          62.9332   81.4486   14.1324 H       1  UNL1        0.1189
     33 C          62.1752   84.1598   13.7498 C.3     1  UNL1        0.0172
     34 C          62.6437   84.1399   12.3250 C.3     1  UNL1        0.0014
     35 C          62.2009   85.2129   11.3749 C.3     1  UNL1        0.0000
     36 C          62.6694   85.1931    9.9501 C.3     1  UNL1        0.0000
     37 C          63.5806   84.1003    9.4753 C.3     1  UNL1        0.0000
     38 C          64.0234   83.0273   10.4254 C.3     1  UNL1        0.0000
     39 C          63.5549   83.0471   11.8502 C.3     1  UNL1        0.0000
@<TRIPOS>BOND
     1    26    27    1
     2    27    25    1
     3    25    24    1
     4    24    23    1
     5    23    22    1
     6    22    11    1
     7    11    12    1
     8    11    14    1
     9    14    15   ar
    10    15    16   ar
    11    16    17   ar
    12    17    18   ar
    13    18    19    1
    14    18    20   ar
    15    20    21    1
    16    11     1    1
    17     1     2    1
    18     2     3    1
    19     3     4    1
    20     4     5    1
    21     5     6   am
    22     6     7    2
    23     6     8   am
    24     8    28    1
    25    28    29    1
    26    29    30    1
    27    29    33    1
    28    33    34    1
    29    34    35    1
    30    35    36    1
    31    36    37    1
    32    37    38    1
    33    38    39    1
    34     5     9    1
    35    20    14   ar
    36     9     1    1
    37    39    34    1
    38    12    13    1
    39     8    10    1
    40    30    31    1
    41    30    32    1
@<TRIPOS>MOLECULE
*****
 39 41 0 0 0
SMALL
GASTEIGER

@<TRIPOS>ATOM
      1 C          62.6418   87.3591   11.3743 C.3     1  UNL1        0.0486
      2 C          62.0624   88.0727   10.1889 C.3     1  UNL1        0.0061
      3 C          62.2511   89.5532   10.0390 C.3     1  UNL1        0.0217
      4 C          63.0191   90.3201   11.0744 C.3     1  UNL1        0.0949
      5 N          63.5985   89.6065   12.2597 N.am    1  UNL1       -0.2641
      6 C          64.3665   90.3734   13.2951 C.2     1  UNL1        0.3040
      7 O          64.9459   89.6597   14.4805 O.2     1  UNL1       -0.2526
      8 N          64.5551   91.8539   13.1452 N.am    1  UNL1       -0.2874
      9 C          63.4098   88.1259   12.4097 C.3     1  UNL1        0.0976
     10 H          64.1749   92.3222   12.3672 H       1  UNL1        0.1510
     11 C          62.4531   85.8786   11.5242 C.3     1  UNL1        0.1106
     12 O          62.8178   85.9791   12.9757 O.3     1  UNL1       -0.3826
     13 H          62.7814   85.0981   13.3800 H       1  UNL1        0.2107
     14 C          62.0884   85.7780   10.0727 C.ar    1  UNL1        0.0301
     15 C          63.0660   85.2014    9.0920 C.ar    1  UNL1        0.0002
     16 C          62.7013   85.1008    7.6405 C.ar    1  UNL1        0.0008
     17 C          61.3590   85.5768    7.1697 C.ar    1  UNL1        0.0136
     18 C          60.3814   86.1534    8.1505 C.ar    1  UNL1        0.0848
     19 CL         59.0391   86.6294    7.6796 Cl      1  UNL1       -0.0799
     20 C          60.7461   86.2540    9.6019 C.ar    1  UNL1        0.1487
     21 F          59.7685   86.8306   10.5827 F       1  UNL1       -0.2035
     22 C          62.2645   84.3981   11.6742 C.3     1  UNL1        0.0314
     23 C          62.1930   83.7858   13.0417 C.3     1  UNL1        0.0053
     24 C          63.2214   82.7805   13.4680 C.3     1  UNL1        0.0322
     25 C          64.0999   83.0618   14.6509 C.3     1  UNL1        0.1423
     26 C          65.4095   85.2992   14.8206 C.3     1  UNL1        0.1741
     27 O          64.2195   84.4600   15.1807 O.3     1  UNL1       -0.3511
     28 C          65.3232   92.6207   14.1806 C.3     1  UNL1        0.1063
     29 C          66.4175   93.5573   13.7617 C.3     1  UNL1        0.0707
     30 N          67.6468   93.7011   14.6090 N.3     1  UNL1       -0.3208
     31 H          67.5704   93.0936   15.4248 H       1  UNL1        0.1189
     32 H          67.7381   94.6701   14.9141 H       1  UNL1        0.1189
     33 C          66.2824   94.3500   12.4955 C.3     1  UNL1        0.0172
     34 C          66.9482   93.8746   11.2383 C.3     1  UNL1        0.0014
     35 C          67.4933   92.4793   11.1599 C.3     1  UNL1        0.0000
     36 C          68.1592   92.0038    9.9027 C.3     1  UNL1        0.0000
     37 C          68.2800   92.9236    8.7239 C.3     1  UNL1        0.0000
     38 C          67.7349   94.3189    8.8024 C.3     1  UNL1        0.0000
     39 C          67.0690   94.7943   10.0595 C.3     1  UNL1        0.0000
@<TRIPOS>BOND
     1    26    27    1
     2    27    25    1
     3    25    24    1
     4    24    23    1
     5    23    22    1
     6    22    11    1
     7    11    12    1
     8    11    14    1
     9    14    15   ar
    10    15    16   ar
    11    16    17   ar
    12    17    18   ar
    13    18    19    1
    14    18    20   ar
    15    20    21    1
    16    11     1    1
    17     1     2    1
    18     2     3    1
    19     3     4    1
    20     4     5    1
    21     5     6   am
    22     6     7    2
    23     6     8   am
    24     8    28    1
    25    28    29    1
    26    29    30    1
    27    29    33    1
    28    33    34    1
    29    34    35    1
    30    35    36    1
    31    36    37    1
    32    37    38    1
    33    38    39    1
    34     5     9    1
    35    20    14   ar
    36     9     1    1
    37    39    34    1
    38    12    13    1
    39     8    10    1
    40    30    31    1
    41    30    32    1
