@<TRIPOS>MOLECULE
*****
 39 43 0 0 0
SMALL
GASTEIGER

@<TRIPOS>ATOM
      1 C          65.0438   91.4802   13.9050 C.3     1  UNL1        0.0761
      2 C          63.7410   90.6810   16.0060 C.ar    1  UNL1        0.1351
      3 C          63.1755   89.5689   16.8387 C.ar    1  UNL1        0.0366
      4 C          63.3471   88.1438   16.4031 C.ar    1  UNL1        0.0030
      5 C          62.7815   87.0317   17.2357 C.ar    1  UNL1        0.0008
      6 C          62.9532   85.6067   16.8001 C.ar    1  UNL1        0.0103
      7 C          63.6904   85.2938   15.5318 C.ar    1  UNL1        0.0684
      8 C          64.2560   86.4059   14.6992 C.ar    1  UNL1        0.0103
      9 C          64.0843   87.8309   15.1348 C.ar    1  UNL1        0.0006
     10 C          64.6499   88.9430   14.3021 C.ar    1  UNL1       -0.0009
     11 C          64.4782   90.3680   14.7377 C.ar    1  UNL1        0.0181
     12 C          64.5892   92.7446   17.3373 C.3     1  UNL1        0.2525
     13 O          63.5694   92.1061   16.4416 O.3     1  UNL1       -0.4717
     14 C          63.8621   83.8687   15.0962 C.1     1  UNL1        0.1004
     15 N          64.0337   82.4437   14.6606 N.1     1  UNL1       -0.1908
     16 C          66.1834   92.3036   14.4278 C.ar    1  UNL1       -0.0160
     17 C          66.2650   93.7651   14.1000 C.ar    1  UNL1       -0.0039
     18 C          67.4046   94.5885   14.6228 C.ar    1  UNL1       -0.0006
     19 C          68.4626   93.9504   15.4734 C.ar    1  UNL1       -0.0043
     20 C          68.3811   92.4889   15.8012 C.ar    1  UNL1       -0.0222
     21 C          69.4391   91.8509   16.6518 C.3     1  UNL1        0.0310
     22 C          67.2415   91.6655   15.2784 C.ar    1  UNL1       -0.0081
     23 C          64.4698   91.7689   12.5497 C.3     1  UNL1        0.1187
     24 O          63.0916   91.4966   13.0754 O.3     1  UNL1       -0.3819
     25 H          62.6353   90.8795   12.4821 H       1  UNL1        0.2107
     26 C          65.8480   92.0412   12.0240 C.ar    1  UNL1        0.0395
     27 C          66.9667   91.0877   12.3228 C.ar    1  UNL1        0.0012
     28 C          68.3449   91.3600   11.7971 C.ar    1  UNL1        0.0031
     29 C          68.6044   92.5859   10.9726 C.ar    1  UNL1        0.0402
     30 C          67.4858   93.5394   10.6737 C.ar    1  UNL1        0.1762
     31 C          66.1075   93.2671   11.1994 C.ar    1  UNL1        0.1746
     32 O          65.2099   94.3797   10.7450 O.3     1  UNL1       -0.4349
     33 C          66.0334   95.3396    9.9385 C.3     1  UNL1        0.4294
     34 O          67.4399   94.8203    9.8945 O.3     1  UNL1       -0.4346
     35 C          63.8958   92.0576   11.1943 C.3     1  UNL1        0.0492
     36 C          63.4119   90.9317   10.3294 C.3     1  UNL1        0.0750
     37 N          62.2909   90.0529   10.7998 N.3     1  UNL1       -0.2702
     38 C          62.5897   88.7034   11.3825 C.3     1  UNL1        0.0897
     39 C          60.8711   90.5237   10.6875 C.3     1  UNL1        0.0897
@<TRIPOS>BOND
     1    12    13    1
     2    13     2    1
     3     2     3   ar
     4     3     4   ar
     5     4     5   ar
     6     5     6   ar
     7     6     7   ar
     8     7    14    1
     9    14    15    3
    10     7     8   ar
    11     8     9   ar
    12     9    10   ar
    13    10    11   ar
    14     1    11    1
    15     1    16    1
    16    16    17   ar
    17    17    18   ar
    18    18    19   ar
    19    19    20   ar
    20    20    21    1
    21    20    22   ar
    22     1    23    1
    23    23    24    1
    24    23    35    1
    25    35    36    1
    26    36    37    1
    27    37    38    1
    28    37    39    1
    29    23    26    1
    30    26    27   ar
    31    27    28   ar
    32    28    29   ar
    33    29    30   ar
    34    30    31   ar
    35    31    32    1
    36    32    33    1
    37    33    34    1
    38    11     2   ar
    39    22    16   ar
    40    31    26   ar
    41     9     4   ar
    42    34    30    1
    43    24    25    1
@<TRIPOS>MOLECULE
*****
 39 43 0 0 0
SMALL
GASTEIGER

@<TRIPOS>ATOM
      1 C          61.9476   88.6254   11.1304 C.3     1  UNL1        0.0761
      2 C          63.6241   89.4944   12.9149 C.ar    1  UNL1        0.1351
      3 C          64.6495   90.4970   13.3547 C.ar    1  UNL1        0.0366
      4 C          65.0238   91.6333   12.4498 C.ar    1  UNL1        0.0030
      5 C          66.0492   92.6358   12.8896 C.ar    1  UNL1        0.0008
      6 C          66.4235   93.7720   11.9847 C.ar    1  UNL1        0.0103
      7 C          65.7724   93.9056   10.6400 C.ar    1  UNL1        0.0684
      8 C          64.7471   92.9031   10.2002 C.ar    1  UNL1        0.0103
      9 C          64.3728   91.7669   11.1051 C.ar    1  UNL1        0.0006
     10 C          63.3474   90.7643   10.6653 C.ar    1  UNL1       -0.0009
     11 C          62.9731   89.6281   11.5702 C.ar    1  UNL1        0.0181
     12 C          64.3162   87.6045   14.5579 C.3     1  UNL1        0.2525
     13 O          63.2497   88.3582   13.8199 O.3     1  UNL1       -0.4717
     14 C          66.1468   95.0419    9.7351 C.1     1  UNL1        0.1004
     15 N          66.5211   96.1782    8.8302 N.1     1  UNL1       -0.1908
     16 C          62.3829   87.2997   10.5800 C.ar    1  UNL1       -0.0160
     17 C          62.8562   87.1958    9.1605 C.ar    1  UNL1       -0.0039
     18 C          63.2915   85.8701    8.6101 C.ar    1  UNL1       -0.0006
     19 C          63.2534   84.6482    9.4793 C.ar    1  UNL1       -0.0043
     20 C          62.7800   84.7520   10.8989 C.ar    1  UNL1       -0.0222
     21 C          62.7420   83.5301   11.7680 C.3     1  UNL1        0.0310
     22 C          62.3448   86.0777   11.4493 C.ar    1  UNL1       -0.0081
     23 C          60.4871   88.9486   11.2410 C.3     1  UNL1        0.1187
     24 O          60.7495   89.6996   12.5127 O.3     1  UNL1       -0.3819
     25 H          60.1282   89.4045   13.1966 H       1  UNL1        0.2107
     26 C          60.2246   88.1976    9.9694 C.ar    1  UNL1        0.0395
     27 C          60.1582   86.6991    9.9834 C.ar    1  UNL1        0.0012
     28 C          59.8957   85.9481    8.7118 C.ar    1  UNL1        0.0031
     29 C          59.6997   86.6955    7.4261 C.ar    1  UNL1        0.0402
     30 C          59.7661   88.1939    7.4121 C.ar    1  UNL1        0.1762
     31 C          60.0286   88.9450    8.6838 C.ar    1  UNL1        0.1746
     32 O          60.0386   90.4103    8.3631 O.3     1  UNL1       -0.4349
     33 C          59.7823   90.5649    6.8933 C.3     1  UNL1        0.4294
     34 O          59.6139   89.1951    6.3055 O.3     1  UNL1       -0.4346
     35 C          59.0265   89.2717   11.3517 C.3     1  UNL1        0.0492
     36 C          58.4576   89.7336   12.6605 C.3     1  UNL1        0.0750
     37 N          57.9949   88.7287   13.6735 N.3     1  UNL1       -0.2702
     38 C          58.8318   88.4461   14.8858 C.3     1  UNL1        0.0897
     39 C          56.6954   88.0066   13.4743 C.3     1  UNL1        0.0897
@<TRIPOS>BOND
     1    12    13    1
     2    13     2    1
     3     2     3   ar
     4     3     4   ar
     5     4     5   ar
     6     5     6   ar
     7     6     7   ar
     8     7    14    1
     9    14    15    3
    10     7     8   ar
    11     8     9   ar
    12     9    10   ar
    13    10    11   ar
    14     1    11    1
    15     1    16    1
    16    16    17   ar
    17    17    18   ar
    18    18    19   ar
    19    19    20   ar
    20    20    21    1
    21    20    22   ar
    22     1    23    1
    23    23    24    1
    24    23    35    1
    25    35    36    1
    26    36    37    1
    27    37    38    1
    28    37    39    1
    29    23    26    1
    30    26    27   ar
    31    27    28   ar
    32    28    29   ar
    33    29    30   ar
    34    30    31   ar
    35    31    32    1
    36    32    33    1
    37    33    34    1
    38    11     2   ar
    39    22    16   ar
    40    31    26   ar
    41     9     4   ar
    42    34    30    1
    43    24    25    1
@<TRIPOS>MOLECULE
*****
 39 43 0 0 0
SMALL
GASTEIGER

@<TRIPOS>ATOM
      1 C          62.2610   88.8202   11.6750 C.3     1  UNL1        0.0761
      2 C          62.3711   87.0677    9.7602 C.ar    1  UNL1        0.1351
      3 C          62.5827   85.6549    9.3029 C.ar    1  UNL1        0.0366
      4 C          62.8956   84.5816   10.3031 C.ar    1  UNL1        0.0030
      5 C          63.1071   83.1688    9.8458 C.ar    1  UNL1        0.0008
      6 C          63.4200   82.0957   10.8460 C.ar    1  UNL1        0.0103
      7 C          63.5214   82.4354   12.3035 C.ar    1  UNL1        0.0684
      8 C          63.3099   83.8482   12.7608 C.ar    1  UNL1        0.0103
      9 C          62.9970   84.9213   11.7606 C.ar    1  UNL1        0.0006
     10 C          62.7854   86.3342   12.2179 C.ar    1  UNL1       -0.0009
     11 C          62.4725   87.4073   11.2177 C.ar    1  UNL1        0.0181
     12 C          60.6324   88.4428    8.4053 C.3     1  UNL1        0.2525
     13 O          62.0582   88.1409    8.7600 O.3     1  UNL1       -0.4717
     14 C          63.8343   81.3621   13.3037 C.1     1  UNL1        0.1004
     15 N          64.1472   80.2890   14.3038 N.1     1  UNL1       -0.1908
     16 C          60.8692   89.3506   11.8527 C.ar    1  UNL1       -0.0160
     17 C          60.4998   90.6911   11.2900 C.ar    1  UNL1       -0.0039
     18 C          59.1080   91.2214   11.4677 C.ar    1  UNL1       -0.0006
     19 C          58.0856   90.4113   12.2081 C.ar    1  UNL1       -0.0043
     20 C          58.4549   89.0707   12.7708 C.ar    1  UNL1       -0.0222
     21 C          57.4324   88.2606   13.5112 C.3     1  UNL1        0.0310
     22 C          59.8467   88.5404   12.5931 C.ar    1  UNL1       -0.0081
     23 C          63.4413   89.7027   11.9546 C.3     1  UNL1        0.1187
     24 O          63.3213   90.2978   10.5830 O.3     1  UNL1       -0.3819
     25 H          64.1877   90.2830   10.1472 H       1  UNL1        0.2107
     26 C          63.5613   89.1076   13.3263 C.ar    1  UNL1        0.0395
     27 C          63.7596   87.6296   13.4879 C.ar    1  UNL1        0.0012
     28 C          63.8796   87.0345   14.8595 C.ar    1  UNL1        0.0031
     29 C          63.8013   87.9174   16.0696 C.ar    1  UNL1        0.0402
     30 C          63.6029   89.3954   15.9080 C.ar    1  UNL1        0.1762
     31 C          63.4829   89.9906   14.5363 C.ar    1  UNL1        0.1746
     32 O          63.2939   91.4708   14.6882 O.3     1  UNL1       -0.4349
     33 C          63.2971   91.7906   16.1537 C.3     1  UNL1        0.4294
     34 O          63.4881   90.5079   16.9076 O.3     1  UNL1       -0.4346
     35 C          64.6215   90.5852   12.2342 C.3     1  UNL1        0.0492
     36 C          64.7397   91.9172   11.5547 C.3     1  UNL1        0.0750
     37 N          65.6674   92.9599   12.1045 N.3     1  UNL1       -0.2702
     38 C          66.0245   94.1581   11.2757 C.3     1  UNL1        0.0897
     39 C          66.2381   92.8043   13.4829 C.3     1  UNL1        0.0897
@<TRIPOS>BOND
     1    12    13    1
     2    13     2    1
     3     2     3   ar
     4     3     4   ar
     5     4     5   ar
     6     5     6   ar
     7     6     7   ar
     8     7    14    1
     9    14    15    3
    10     7     8   ar
    11     8     9   ar
    12     9    10   ar
    13    10    11   ar
    14     1    11    1
    15     1    16    1
    16    16    17   ar
    17    17    18   ar
    18    18    19   ar
    19    19    20   ar
    20    20    21    1
    21    20    22   ar
    22     1    23    1
    23    23    24    1
    24    23    35    1
    25    35    36    1
    26    36    37    1
    27    37    38    1
    28    37    39    1
    29    23    26    1
    30    26    27   ar
    31    27    28   ar
    32    28    29   ar
    33    29    30   ar
    34    30    31   ar
    35    31    32    1
    36    32    33    1
    37    33    34    1
    38    11     2   ar
    39    22    16   ar
    40    31    26   ar
    41     9     4   ar
    42    34    30    1
    43    24    25    1
@<TRIPOS>MOLECULE
*****
 39 43 0 0 0
SMALL
GASTEIGER

@<TRIPOS>ATOM
      1 C          61.9018   88.5167   11.1044 C.3     1  UNL1        0.0761
      2 C          63.5977   89.3547   12.8854 C.ar    1  UNL1        0.1351
      3 C          64.6187   90.3565   13.3369 C.ar    1  UNL1        0.0366
      4 C          64.9649   91.5224   12.4589 C.ar    1  UNL1        0.0030
      5 C          65.9859   92.5242   12.9103 C.ar    1  UNL1        0.0008
      6 C          66.3320   93.6900   12.0323 C.ar    1  UNL1        0.0103
      7 C          65.6572   93.8540   10.7027 C.ar    1  UNL1        0.0684
      8 C          64.6362   92.8522   10.2512 C.ar    1  UNL1        0.0103
      9 C          64.2901   91.6864   11.1293 C.ar    1  UNL1        0.0006
     10 C          63.2690   90.6845   10.6778 C.ar    1  UNL1       -0.0009
     11 C          62.9229   89.5187   11.5559 C.ar    1  UNL1        0.0181
     12 C          64.3099   87.5486   14.6119 C.3     1  UNL1        0.2525
     13 O          63.2515   88.1888   13.7635 O.3     1  UNL1       -0.4717
     14 C          66.0034   95.0199    9.8246 C.1     1  UNL1        0.1004
     15 N          66.3496   96.1857    8.9466 N.1     1  UNL1       -0.1908
     16 C          62.3428   87.2219   10.4888 C.ar    1  UNL1       -0.0160
     17 C          62.7770   87.1833    9.0536 C.ar    1  UNL1       -0.0039
     18 C          63.2180   85.8884    8.4380 C.ar    1  UNL1       -0.0006
     19 C          63.2247   84.6322    9.2577 C.ar    1  UNL1       -0.0043
     20 C          62.7905   84.6708   10.6930 C.ar    1  UNL1       -0.0222
     21 C          62.7972   83.4146   11.5127 C.3     1  UNL1        0.0310
     22 C          62.3495   85.9657   11.3086 C.ar    1  UNL1       -0.0081
     23 C          60.4399   88.8097   11.2685 C.3     1  UNL1        0.1187
     24 O          60.5676   88.6167   12.7505 O.3     1  UNL1       -0.3819
     25 H          59.8739   88.0128   13.0589 H       1  UNL1        0.2107
     26 C          60.3123   89.0027    9.7865 C.ar    1  UNL1        0.0395
     27 C          60.5840   90.3471    9.1791 C.ar    1  UNL1        0.0012
     28 C          60.4563   90.5402    7.6971 C.ar    1  UNL1        0.0031
     29 C          60.0569   89.3889    6.8224 C.ar    1  UNL1        0.0402
     30 C          59.7852   88.0445    7.4298 C.ar    1  UNL1        0.1762
     31 C          59.9129   87.8514    8.9119 C.ar    1  UNL1        0.1746
     32 O          59.5839   86.4215    9.2231 O.3     1  UNL1       -0.4349
     33 C          59.2528   85.7307    7.9334 C.3     1  UNL1        0.4294
     34 O          59.3773   86.7339    6.8251 O.3     1  UNL1       -0.4346
     35 C          58.9780   89.1027   11.4326 C.3     1  UNL1        0.0492
     36 C          58.4588   89.6182   12.7421 C.3     1  UNL1        0.0750
     37 N          57.9529   88.6588   13.7783 N.3     1  UNL1       -0.2702
     38 C          58.7446   88.4206   15.0299 C.3     1  UNL1        0.0897
     39 C          56.6554   87.9377   13.5629 C.3     1  UNL1        0.0897
@<TRIPOS>BOND
     1    12    13    1
     2    13     2    1
     3     2     3   ar
     4     3     4   ar
     5     4     5   ar
     6     5     6   ar
     7     6     7   ar
     8     7    14    1
     9    14    15    3
    10     7     8   ar
    11     8     9   ar
    12     9    10   ar
    13    10    11   ar
    14     1    11    1
    15     1    16    1
    16    16    17   ar
    17    17    18   ar
    18    18    19   ar
    19    19    20   ar
    20    20    21    1
    21    20    22   ar
    22     1    23    1
    23    23    24    1
    24    23    35    1
    25    35    36    1
    26    36    37    1
    27    37    38    1
    28    37    39    1
    29    23    26    1
    30    26    27   ar
    31    27    28   ar
    32    28    29   ar
    33    29    30   ar
    34    30    31   ar
    35    31    32    1
    36    32    33    1
    37    33    34    1
    38    11     2   ar
    39    22    16   ar
    40    31    26   ar
    41     9     4   ar
    42    34    30    1
    43    24    25    1
@<TRIPOS>MOLECULE
*****
 39 43 0 0 0
SMALL
GASTEIGER

@<TRIPOS>ATOM
      1 C          62.8604   89.5085   12.8272 C.3     1  UNL1        0.0761
      2 C          64.3928   91.1961   14.0737 C.ar    1  UNL1        0.1351
      3 C          65.3341   92.3636   14.0435 C.ar    1  UNL1        0.0366
      4 C          65.6842   93.0111   12.7364 C.ar    1  UNL1        0.0030
      5 C          66.6255   94.1785   12.7062 C.ar    1  UNL1        0.0008
      6 C          66.9756   94.8259   11.3992 C.ar    1  UNL1        0.0103
      7 C          66.3845   94.3059   10.1225 C.ar    1  UNL1        0.0684
      8 C          65.4432   93.1384   10.1527 C.ar    1  UNL1        0.0103
      9 C          65.0931   92.4910   11.4597 C.ar    1  UNL1        0.0006
     10 C          64.1518   91.3234   11.4900 C.ar    1  UNL1       -0.0009
     11 C          63.8017   90.6760   12.7970 C.ar    1  UNL1        0.0181
     12 C          63.8944   91.3858   16.6165 C.3     1  UNL1        0.2525
     13 O          64.0427   90.5486   15.3807 O.3     1  UNL1       -0.4717
     14 C          66.7346   94.9533    8.8154 C.1     1  UNL1        0.1004
     15 N          67.0848   95.6007    7.5085 N.1     1  UNL1       -0.1908
     16 C          61.4176   89.6987   12.4637 C.ar    1  UNL1       -0.0160
     17 C          61.0420   90.6219   11.3427 C.ar    1  UNL1       -0.0039
     18 C          59.5992   90.8121   10.9791 C.ar    1  UNL1       -0.0006
     19 C          58.5320   90.0792   11.7366 C.ar    1  UNL1       -0.0043
     20 C          58.9075   89.1559   12.8576 C.ar    1  UNL1       -0.0222
     21 C          57.8403   88.4230   13.6151 C.3     1  UNL1        0.0310
     22 C          60.3503   88.9657   13.2212 C.ar    1  UNL1       -0.0081
     23 C          63.3619   88.1508   13.2211 C.3     1  UNL1        0.1187
     24 O          63.7725   88.6906   14.5590 O.3     1  UNL1       -0.3819
     25 H          64.6876   88.4290   14.7461 H       1  UNL1        0.2107
     26 C          62.9512   87.6110   11.8832 C.ar    1  UNL1        0.0395
     27 C          62.7440   88.5460   10.7287 C.ar    1  UNL1        0.0012
     28 C          62.3333   88.0063    9.3908 C.ar    1  UNL1        0.0031
     29 C          62.1299   86.5315    9.2073 C.ar    1  UNL1        0.0402
     30 C          62.3371   85.5965   10.3618 C.ar    1  UNL1        0.1762
     31 C          62.7478   86.1362   11.6998 C.ar    1  UNL1        0.1746
     32 O          62.8768   84.9798   12.6464 O.3     1  UNL1       -0.4349
     33 C          62.5458   83.7254   11.8935 C.3     1  UNL1        0.4294
     34 O          62.2123   84.1065   10.4816 O.3     1  UNL1       -0.4346
     35 C          63.8633   86.7931   13.6149 C.3     1  UNL1        0.0492
     36 C          64.3130   86.5391   15.0232 C.3     1  UNL1        0.0750
     37 N          63.3627   85.9403   16.0175 N.3     1  UNL1       -0.2702
     38 C          62.8327   84.5529   15.8068 C.3     1  UNL1        0.0897
     39 C          62.9424   86.7288   17.2222 C.3     1  UNL1        0.0897
@<TRIPOS>BOND
     1    12    13    1
     2    13     2    1
     3     2     3   ar
     4     3     4   ar
     5     4     5   ar
     6     5     6   ar
     7     6     7   ar
     8     7    14    1
     9    14    15    3
    10     7     8   ar
    11     8     9   ar
    12     9    10   ar
    13    10    11   ar
    14     1    11    1
    15     1    16    1
    16    16    17   ar
    17    17    18   ar
    18    18    19   ar
    19    19    20   ar
    20    20    21    1
    21    20    22   ar
    22     1    23    1
    23    23    24    1
    24    23    35    1
    25    35    36    1
    26    36    37    1
    27    37    38    1
    28    37    39    1
    29    23    26    1
    30    26    27   ar
    31    27    28   ar
    32    28    29   ar
    33    29    30   ar
    34    30    31   ar
    35    31    32    1
    36    32    33    1
    37    33    34    1
    38    11     2   ar
    39    22    16   ar
    40    31    26   ar
    41     9     4   ar
    42    34    30    1
    43    24    25    1
