@<TRIPOS>MOLECULE
*****
 35 39 0 0 0
SMALL
GASTEIGER

@<TRIPOS>ATOM
      1 C          63.1355   90.5639   11.5226 C.ar    1  UNL1        0.0483
      2 S          63.6549   91.5631   10.5317 S.2     1  UNL1       -0.0708
      3 C          64.8316   92.2592   11.1487 C.ar    1  UNL1        0.0879
      4 N          65.0396   91.6902   12.5210 N.ar    1  UNL1       -0.2427
      5 C          63.9913   90.6425   12.7520 C.ar    1  UNL1        0.0874
      6 C          65.6557   93.3354   10.5062 C.3     1  UNL1        0.0493
      7 C          65.1876   94.7600   10.5410 C.3     1  UNL1        0.0238
      8 C          66.0116   95.8362    9.8986 C.3     1  UNL1        0.0725
      9 N          67.3039   95.4876    9.2214 N.3     1  UNL1       -0.2715
     10 C          68.1280   96.5638    8.5789 C.3     1  UNL1        0.0896
     11 C          67.7720   94.0630    9.1865 C.3     1  UNL1        0.0725
     12 C          66.9479   92.9869    9.8290 C.3     1  UNL1        0.0238
     13 C          63.8276   89.8181   13.9944 C.ar    1  UNL1        0.0183
     14 C          63.3450   90.4591   15.2618 C.ar    1  UNL1        0.0038
     15 C          63.1813   89.6348   16.5042 C.ar    1  UNL1        0.0297
     16 C          63.5002   88.1692   16.4793 C.ar    1  UNL1        0.1401
     17 F          63.3365   87.3448   17.7217 F       1  UNL1       -0.2042
     18 C          63.9829   87.5282   15.2119 C.ar    1  UNL1        0.0297
     19 C          64.1465   88.3526   13.9696 C.ar    1  UNL1        0.0038
     20 C          60.9569   87.4767   10.3090 C.ar    1  UNL1        0.1287
     21 C          62.1266   88.3935   10.5118 C.ar    1  UNL1        0.0347
     22 C          61.9658   89.6470   11.3198 C.ar    1  UNL1        0.0118
     23 C          60.6352   89.9838   11.9248 C.ar    1  UNL1        0.0213
     24 C          59.4654   89.0670   11.7220 C.ar    1  UNL1        0.1003
     25 N          59.6263   87.8135   10.9141 N.ar    1  UNL1       -0.2294
     26 N          61.1177   86.2231    9.5011 N.pl3   1  UNL1       -0.3160
     27 H          60.3506   85.8549    9.0059 H       1  UNL1        0.1484
     28 C          63.2956   85.6300    8.2146 C.3     1  UNL1        0.0261
     29 C          62.4472   85.5307    9.4477 C.3     1  UNL1        0.0930
     30 C          62.9283   84.7388   10.6273 C.ar    1  UNL1       -0.0045
     31 C          62.5068   85.1270   12.0135 C.ar    1  UNL1       -0.0027
     32 C          62.9880   84.3352   13.1931 C.ar    1  UNL1       -0.0003
     33 C          63.8906   83.1552   12.9865 C.ar    1  UNL1       -0.0000
     34 C          64.3122   82.7669   11.6003 C.ar    1  UNL1       -0.0003
     35 C          63.8310   83.5587   10.4207 C.ar    1  UNL1       -0.0027
@<TRIPOS>BOND
     1    29    28    1
     2    29    26    1
     3    26    20    1
     4    20    21   ar
     5    21    22   ar
     6    22     1    1
     7     1     2   ar
     8     2     3   ar
     9     3     6    1
    10     6     7    1
    11     7     8    1
    12     8     9    1
    13     9    10    1
    14     9    11    1
    15    11    12    1
    16     3     4   ar
    17     4     5   ar
    18     5    13    1
    19    13    14   ar
    20    14    15   ar
    21    15    16   ar
    22    16    17    1
    23    16    18   ar
    24    18    19   ar
    25    22    23   ar
    26    23    24   ar
    27    24    25   ar
    28    29    30    1
    29    30    31   ar
    30    31    32   ar
    31    32    33   ar
    32    33    34   ar
    33    34    35   ar
    34    25    20   ar
    35    35    30   ar
    36     5     1   ar
    37    19    13   ar
    38    12     6    1
    39    26    27    1
