@<TRIPOS>MOLECULE
*****
 43 48 0 0 0
SMALL
GASTEIGER

@<TRIPOS>ATOM
      1 C          59.2950   89.8074    6.5457 C.2     1  UNL1        0.2461
      2 O          57.9056   89.2602    6.6870 O.2     1  UNL1       -0.2701
      3 N          60.3688   89.3843    7.5037 N.am    1  UNL1       -0.2964
      4 H          61.2807   89.7435    7.4109 H       1  UNL1        0.1501
      5 C          63.8025   91.1933    3.0026 C.3     1  UNL1        0.1304
      6 N          62.5173   91.9575    2.8826 N.ar    1  UNL1       -0.3253
      7 C          62.2440   93.0778    1.9234 C.ar    1  UNL1        0.0590
      8 C          60.8376   93.5481    2.1488 C.ar    1  UNL1       -0.0052
      9 C          60.2417   92.7185    3.2473 C.ar    1  UNL1        0.0132
     10 C          58.8880   92.7313    3.8932 C.ar    1  UNL1        0.0013
     11 C          58.5725   91.7609    4.9926 C.ar    1  UNL1        0.0046
     12 C          59.6106   90.7778    5.4462 C.ar    1  UNL1        0.0548
     13 C          60.9644   90.7651    4.8003 C.ar    1  UNL1        0.0217
     14 C          61.2799   91.7354    3.7009 C.ar    1  UNL1        0.0598
     15 C          63.2077   93.6307    0.9157 C.ar    1  UNL1        0.0562
     16 C          62.9855   93.7105   -0.5656 C.ar    1  UNL1        0.0452
     17 C          64.2034   94.3300   -1.1844 C.ar    1  UNL1        0.1798
     18 O          65.1784   94.6330   -0.0856 O.2     1  UNL1       -0.4473
     19 C          64.5630   94.2009    1.2124 C.ar    1  UNL1        0.1811
     20 C          60.1480   94.6540    1.4061 C.3     1  UNL1        0.0238
     21 C          60.1070   96.0972    1.8123 C.3     1  UNL1        0.0044
     22 C          59.3120   96.8460    0.7840 C.3     1  UNL1        0.0003
     23 C          58.8617   95.8653   -0.2578 C.3     1  UNL1        0.0003
     24 C          59.3783   94.5106    0.1266 C.3     1  UNL1        0.0044
     25 C          60.0532   88.4139    8.6032 C.3     1  UNL1        0.1260
     26 C          59.2740   87.5722    7.6366 C.3     1  UNL1        0.0270
     27 C          58.9584   86.6019    8.7360 C.3     1  UNL1        0.0043
     28 C          59.7376   87.4436    9.7026 C.3     1  UNL1        0.0270
     29 C          60.8324   89.2556    9.5698 C.2     1  UNL1        0.2419
     30 O          60.2162   90.4925   10.1534 O.2     1  UNL1       -0.2731
     31 N          62.2278   88.8605    9.9529 N.am    1  UNL1       -0.2826
     32 H          62.6322   88.0487    9.5699 H       1  UNL1        0.1549
     33 C          63.0070   89.7022   10.9196 C.ar    1  UNL1        0.0503
     34 C          63.5912   91.0099   10.4738 C.ar    1  UNL1        0.0147
     35 C          64.3703   91.8517   11.4403 C.ar    1  UNL1        0.0013
     36 C          64.5654   91.3858   12.8528 C.ar    1  UNL1        0.0001
     37 C          63.9813   90.0781   13.2986 C.ar    1  UNL1        0.0013
     38 C          63.2020   89.2363   12.3319 C.ar    1  UNL1        0.0147
     39 C          65.3446   92.2275   13.8194 C.2     1  UNL1        0.0012
     40 C          66.7274   91.8144   14.2283 C.2     1  UNL1        0.0151
     41 C          67.5066   92.6562   15.1948 C.2     1  UNL1        0.0729
     42 O          68.9261   93.0313   14.8877 O.co2   1  UNL1       -0.5446
     43 O          66.8663   93.1228   16.4685 O.co2   1  UNL1       -0.5446
@<TRIPOS>UNITY_ATOM_ATTR
42 1
charge -1
@<TRIPOS>BOND
     1     5     6    1
     2     6     7   ar
     3     7    15    1
     4    15    16   ar
     5    16    17   ar
     6    17    18   ar
     7    18    19   ar
     8     7     8   ar
     9     8    20    1
    10    20    21    1
    11    21    22    1
    12    22    23    1
    13    23    24    1
    14     8     9   ar
    15     9    10   ar
    16    10    11   ar
    17    11    12   ar
    18    12     1    1
    19     1     2    2
    20     1     3   am
    21     3    25    1
    22    25    29    1
    23    29    30    2
    24    29    31   am
    25    31    33    1
    26    33    34   ar
    27    34    35   ar
    28    35    36   ar
    29    36    39    1
    30    39    40    2
    31    40    41    1
    32    41    42   ar
    33    41    43   ar
    34    36    37   ar
    35    37    38   ar
    36    25    26    1
    37    26    27    1
    38    27    28    1
    39    12    13   ar
    40    13    14   ar
    41    14     6   ar
    42    19    15   ar
    43    24    20    1
    44    14     9   ar
    45    28    25    1
    46    38    33   ar
    47     3     4    1
    48    31    32    1
@<TRIPOS>MOLECULE
*****
 43 48 0 0 0
SMALL
GASTEIGER

@<TRIPOS>ATOM
      1 C          58.8870   89.2455    6.8363 C.2     1  UNL1        0.2461
      2 O          57.4224   88.9496    6.7050 O.2     1  UNL1       -0.2701
      3 N          59.5001   90.3632    6.0457 N.am    1  UNL1       -0.2964
      4 H          60.4614   90.5574    6.1319 H       1  UNL1        0.1501
      5 C          61.8976   89.8997   11.8662 C.3     1  UNL1        0.1304
      6 N          61.8898   88.5617   11.1883 N.ar    1  UNL1       -0.3253
      7 C          62.5908   87.3257   11.6688 C.ar    1  UNL1        0.0590
      8 C          62.3137   86.2249   10.6883 C.ar    1  UNL1       -0.0052
      9 C          61.4415   86.7805    9.6018 C.ar    1  UNL1        0.0132
     10 C          60.8521   86.1579    8.3710 C.ar    1  UNL1        0.0013
     11 C          60.0006   86.9796    7.4492 C.ar    1  UNL1        0.0046
     12 C          59.7386   88.4239    7.7582 C.ar    1  UNL1        0.0548
     13 C          60.3280   89.0464    8.9890 C.ar    1  UNL1        0.0217
     14 C          61.1795   88.2247    9.9108 C.ar    1  UNL1        0.0598
     15 C          63.4227   87.2107   12.9117 C.ar    1  UNL1        0.0562
     16 C          63.8282   85.9338   13.5862 C.ar    1  UNL1        0.0452
     17 C          64.6514   86.2864   14.7896 C.ar    1  UNL1        0.1798
     18 O          64.7546   87.7812   14.8588 O.2     1  UNL1       -0.4473
     19 C          63.9952   88.3525   13.6982 C.ar    1  UNL1        0.1811
     20 C          62.8200   84.8158   10.7785 C.3     1  UNL1        0.0238
     21 C          62.5018   83.8324   11.8654 C.3     1  UNL1        0.0044
     22 C          63.2185   82.5515   11.5562 C.3     1  UNL1        0.0003
     23 C          63.9798   82.7433   10.2780 C.3     1  UNL1        0.0003
     24 C          63.7335   84.1427    9.7973 C.3     1  UNL1        0.0044
     25 C          58.6486   91.1848    5.1239 C.3     1  UNL1        0.1260
     26 C          57.4144   90.6543    5.7911 C.3     1  UNL1        0.0270
     27 C          56.5628   91.4759    4.8693 C.3     1  UNL1        0.0043
     28 C          57.7970   92.0065    4.2021 C.3     1  UNL1        0.0270
     29 C          59.8828   91.7154    4.4566 C.2     1  UNL1        0.2419
     30 O          61.2382   91.3052    4.9515 O.2     1  UNL1       -0.2731
     31 N          59.7617   92.6561    3.2945 N.am    1  UNL1       -0.2826
     32 H          58.8721   92.9253    2.9698 H       1  UNL1        0.1549
     33 C          60.9960   93.1866    2.6273 C.ar    1  UNL1        0.0503
     34 C          61.0041   94.5753    2.0604 C.ar    1  UNL1        0.0147
     35 C          62.2383   95.1059    1.3932 C.ar    1  UNL1        0.0013
     36 C          63.4645   94.2477    1.2928 C.ar    1  UNL1        0.0001
     37 C          63.4564   92.8589    1.8597 C.ar    1  UNL1        0.0013
     38 C          62.2221   92.3284    2.5270 C.ar    1  UNL1        0.0147
     39 C          64.6987   94.7782    0.6256 C.2     1  UNL1        0.0012
     40 C          64.5875   95.8660   -0.4011 C.2     1  UNL1        0.0151
     41 C          65.8217   96.3966   -1.0684 C.2     1  UNL1        0.0729
     42 O          65.8935   96.4678   -2.5650 O.co2   1  UNL1       -0.5446
     43 O          66.9841   96.8560   -0.2390 O.co2   1  UNL1       -0.5446
@<TRIPOS>UNITY_ATOM_ATTR
42 1
charge -1
@<TRIPOS>BOND
     1     5     6    1
     2     6     7   ar
     3     7    15    1
     4    15    16   ar
     5    16    17   ar
     6    17    18   ar
     7    18    19   ar
     8     7     8   ar
     9     8    20    1
    10    20    21    1
    11    21    22    1
    12    22    23    1
    13    23    24    1
    14     8     9   ar
    15     9    10   ar
    16    10    11   ar
    17    11    12   ar
    18    12     1    1
    19     1     2    2
    20     1     3   am
    21     3    25    1
    22    25    29    1
    23    29    30    2
    24    29    31   am
    25    31    33    1
    26    33    34   ar
    27    34    35   ar
    28    35    36   ar
    29    36    39    1
    30    39    40    2
    31    40    41    1
    32    41    42   ar
    33    41    43   ar
    34    36    37   ar
    35    37    38   ar
    36    25    26    1
    37    26    27    1
    38    27    28    1
    39    12    13   ar
    40    13    14   ar
    41    14     6   ar
    42    19    15   ar
    43    24    20    1
    44    14     9   ar
    45    28    25    1
    46    38    33   ar
    47     3     4    1
    48    31    32    1
@<TRIPOS>MOLECULE
*****
 43 48 0 0 0
SMALL
GASTEIGER

@<TRIPOS>ATOM
      1 C          61.1365   89.3701    9.9199 C.2     1  UNL1        0.2461
      2 O          60.2004   88.7781   10.9314 O.2     1  UNL1       -0.2701
      3 N          60.9703   89.0469    8.4646 N.am    1  UNL1       -0.2964
      4 H          61.5847   89.4354    7.8007 H       1  UNL1        0.1501
      5 C          64.7972   90.0205   14.4990 C.3     1  UNL1        0.1304
      6 N          64.8766   90.9897   13.3569 N.ar    1  UNL1       -0.3253
      7 C          65.8214   92.1497   13.2490 C.ar    1  UNL1        0.0590
      8 C          65.5538   92.8459   11.9476 C.ar    1  UNL1       -0.0052
      9 C          64.4437   92.1161   11.2511 C.ar    1  UNL1        0.0132
     10 C          63.7599   92.3481    9.9364 C.ar    1  UNL1        0.0013
     11 C          62.6575   91.4327    9.4927 C.ar    1  UNL1        0.0046
     12 C          62.2390   90.2855   10.3637 C.ar    1  UNL1        0.0548
     13 C          62.9228   90.0536   11.6784 C.ar    1  UNL1        0.0217
     14 C          64.0251   90.9689   12.1221 C.ar    1  UNL1        0.0598
     15 C          66.8526   92.5443   14.2643 C.ar    1  UNL1        0.0562
     16 C          68.3381   92.3996   14.1144 C.ar    1  UNL1        0.0452
     17 C          68.9831   92.9187   15.3652 C.ar    1  UNL1        0.1798
     18 O          67.8962   93.3843   16.2882 O.2     1  UNL1       -0.4473
     19 C          66.5796   93.1529   15.6078 C.ar    1  UNL1        0.1811
     20 C          66.2705   94.0589   11.4329 C.3     1  UNL1        0.0238
     21 C          66.2046   95.4375   12.0204 C.3     1  UNL1        0.0044
     22 C          67.0724   96.3370   11.1910 C.3     1  UNL1        0.0003
     23 C          67.6746   95.5142   10.0908 C.3     1  UNL1        0.0003
     24 C          67.1791   94.1063   10.2403 C.3     1  UNL1        0.0044
     25 C          59.8679   88.1315    8.0208 C.3     1  UNL1        0.1260
     26 C          59.3280   89.2126    7.1322 C.3     1  UNL1        0.0270
     27 C          58.2256   88.2974    6.6884 C.3     1  UNL1        0.0043
     28 C          58.7655   87.2163    7.5770 C.3     1  UNL1        0.0270
     29 C          60.4077   87.0504    8.9094 C.2     1  UNL1        0.2419
     30 O          59.4795   86.2770    9.7985 O.2     1  UNL1       -0.2731
     31 N          61.8758   86.7426    8.9091 N.am    1  UNL1       -0.2826
     32 H          62.4851   87.2502    8.3256 H       1  UNL1        0.1549
     33 C          62.4157   85.6614    9.7977 C.ar    1  UNL1        0.0503
     34 C          63.2549   84.5623    9.2166 C.ar    1  UNL1        0.0147
     35 C          63.7947   83.4811   10.1052 C.ar    1  UNL1        0.0013
     36 C          63.4954   83.4991   11.5750 C.ar    1  UNL1        0.0001
     37 C          62.6562   84.5982   12.1561 C.ar    1  UNL1        0.0013
     38 C          62.1163   85.6794   11.2674 C.ar    1  UNL1        0.0147
     39 C          64.0352   82.4179   12.4636 C.2     1  UNL1        0.0012
     40 C          63.0964   81.4568   13.1306 C.2     1  UNL1        0.0151
     41 C          63.6362   80.3756   14.0192 C.2     1  UNL1        0.0729
     42 O          64.9948   80.5221   14.6380 O.co2   1  UNL1       -0.5446
     43 O          62.8176   79.1480   14.2890 O.co2   1  UNL1       -0.5446
@<TRIPOS>UNITY_ATOM_ATTR
42 1
charge -1
@<TRIPOS>BOND
     1     5     6    1
     2     6     7   ar
     3     7    15    1
     4    15    16   ar
     5    16    17   ar
     6    17    18   ar
     7    18    19   ar
     8     7     8   ar
     9     8    20    1
    10    20    21    1
    11    21    22    1
    12    22    23    1
    13    23    24    1
    14     8     9   ar
    15     9    10   ar
    16    10    11   ar
    17    11    12   ar
    18    12     1    1
    19     1     2    2
    20     1     3   am
    21     3    25    1
    22    25    29    1
    23    29    30    2
    24    29    31   am
    25    31    33    1
    26    33    34   ar
    27    34    35   ar
    28    35    36   ar
    29    36    39    1
    30    39    40    2
    31    40    41    1
    32    41    42   ar
    33    41    43   ar
    34    36    37   ar
    35    37    38   ar
    36    25    26    1
    37    26    27    1
    38    27    28    1
    39    12    13   ar
    40    13    14   ar
    41    14     6   ar
    42    19    15   ar
    43    24    20    1
    44    14     9   ar
    45    28    25    1
    46    38    33   ar
    47     3     4    1
    48    31    32    1
@<TRIPOS>MOLECULE
*****
 43 48 0 0 0
SMALL
GASTEIGER

@<TRIPOS>ATOM
      1 C          61.9907   94.1218   -1.0468 C.2     1  UNL1        0.2461
      2 O          63.2294   93.4963   -1.6164 O.2     1  UNL1       -0.2701
      3 N          62.0370   94.7898    0.2955 N.am    1  UNL1       -0.2964
      4 H          61.2240   95.2003    0.6693 H       1  UNL1        0.1501
      5 C          56.6485   96.6191   -0.9230 C.3     1  UNL1        0.1304
      6 N          56.9624   95.6184   -1.9955 N.ar    1  UNL1       -0.3253
      7 C          56.0302   95.1672   -3.0805 C.ar    1  UNL1        0.0590
      8 C          56.7554   94.1632   -3.9268 C.ar    1  UNL1       -0.0052
      9 C          58.1358   93.9941   -3.3648 C.ar    1  UNL1        0.0132
     10 C          59.2928   93.1373   -3.7857 C.ar    1  UNL1        0.0013
     11 C          60.5778   93.1799   -3.0131 C.ar    1  UNL1        0.0046
     12 C          60.7057   94.0792   -1.8194 C.ar    1  UNL1        0.0548
     13 C          59.5487   94.9360   -1.3985 C.ar    1  UNL1        0.0217
     14 C          58.2638   94.8934   -2.1712 C.ar    1  UNL1        0.0598
     15 C          54.6203   95.6373   -3.2835 C.ar    1  UNL1        0.0562
     16 C          54.0921   96.3419   -4.4978 C.ar    1  UNL1        0.0452
     17 C          52.6364   96.6254   -4.2727 C.ar    1  UNL1        0.1798
     18 O          52.2649   96.0959   -2.9194 O.2     1  UNL1       -0.4473
     19 C          53.4911   95.4852   -2.3080 C.ar    1  UNL1        0.1811
     20 C          56.1981   93.4531   -5.1247 C.3     1  UNL1        0.0238
     21 C          55.8839   91.9892   -5.2148 C.3     1  UNL1        0.0044
     22 C          55.3487   91.7136   -6.5887 C.3     1  UNL1        0.0003
     23 C          55.3321   93.0073   -7.3478 C.3     1  UNL1        0.0003
     24 C          55.8570   94.0824   -6.4430 C.3     1  UNL1        0.0044
     25 C          63.3221   94.8324    1.0681 C.3     1  UNL1        0.1260
     26 C          63.8906   95.7964    0.0695 C.3     1  UNL1        0.0270
     27 C          65.1756   95.8389    0.8421 C.3     1  UNL1        0.0043
     28 C          64.6070   94.8749    1.8408 C.3     1  UNL1        0.0270
     29 C          62.7535   93.8684    2.0668 C.2     1  UNL1        0.2419
     30 O          63.6712   93.0632    2.9385 O.2     1  UNL1       -0.2731
     31 N          61.2674   93.7094    2.1939 N.am    1  UNL1       -0.2826
     32 H          60.6651   94.2378    1.6218 H       1  UNL1        0.1549
     33 C          60.6989   92.7453    3.1926 C.ar    1  UNL1        0.0503
     34 C          61.5811   91.7054    3.8173 C.ar    1  UNL1        0.0147
     35 C          61.0126   90.7414    4.8161 C.ar    1  UNL1        0.0013
     36 C          59.5620   90.8172    5.1901 C.ar    1  UNL1        0.0001
     37 C          58.6798   91.8572    4.5654 C.ar    1  UNL1        0.0013
     38 C          59.2483   92.8213    3.5666 C.ar    1  UNL1        0.0147
     39 C          58.9935   89.8532    6.1888 C.2     1  UNL1        0.0012
     40 C          59.9114   89.0197    7.0331 C.2     1  UNL1        0.0151
     41 C          59.3429   88.0557    8.0318 C.2     1  UNL1        0.0729
     42 O          59.5489   88.2876    9.4994 O.co2   1  UNL1       -0.5446
     43 O          58.5685   86.8596    7.5630 O.co2   1  UNL1       -0.5446
@<TRIPOS>UNITY_ATOM_ATTR
42 1
charge -1
@<TRIPOS>BOND
     1     5     6    1
     2     6     7   ar
     3     7    15    1
     4    15    16   ar
     5    16    17   ar
     6    17    18   ar
     7    18    19   ar
     8     7     8   ar
     9     8    20    1
    10    20    21    1
    11    21    22    1
    12    22    23    1
    13    23    24    1
    14     8     9   ar
    15     9    10   ar
    16    10    11   ar
    17    11    12   ar
    18    12     1    1
    19     1     2    2
    20     1     3   am
    21     3    25    1
    22    25    29    1
    23    29    30    2
    24    29    31   am
    25    31    33    1
    26    33    34   ar
    27    34    35   ar
    28    35    36   ar
    29    36    39    1
    30    39    40    2
    31    40    41    1
    32    41    42   ar
    33    41    43   ar
    34    36    37   ar
    35    37    38   ar
    36    25    26    1
    37    26    27    1
    38    27    28    1
    39    12    13   ar
    40    13    14   ar
    41    14     6   ar
    42    19    15   ar
    43    24    20    1
    44    14     9   ar
    45    28    25    1
    46    38    33   ar
    47     3     4    1
    48    31    32    1
