@<TRIPOS>MOLECULE
*****
 44 48 0 0 0
SMALL
GASTEIGER

@<TRIPOS>ATOM
      1 C          66.4154   93.6662   12.0802 C.2     1  UNL1        0.2248
      2 O          66.7385   94.9388   11.3549 O.2     1  UNL1       -0.2749
      3 N          65.3563   92.7474   11.5473 N.am    1  UNL1       -0.2774
      4 C          64.5410   92.9669   10.3076 C.3     1  UNL1        0.0956
      5 C          63.6074   91.8029   10.1546 C.3     1  UNL1        0.0497
      6 C          63.8457   90.8639   11.2998 C.3     1  UNL1        0.1533
      7 C          64.9266   91.4476   12.1605 C.3     1  UNL1        0.1198
      8 C          68.6234   92.6050   15.8549 C.3     1  UNL1        0.0321
      9 C          69.0760   92.0456   14.5388 C.3     1  UNL1        0.0057
     10 C          68.3400   92.3994   13.2806 C.3     1  UNL1        0.0090
     11 C          67.1514   93.3125   13.3385 C.3     1  UNL1        0.0691
     12 C          66.6988   93.8719   14.6546 C.3     1  UNL1        0.0090
     13 C          67.4348   93.5181   15.9128 C.3     1  UNL1        0.0057
     14 C          67.5227   93.1473   14.0545 C.3     1  UNL1        0.0090
     15 C          68.1883   92.8274   15.1922 C.3     1  UNL1        0.0057
     16 O          68.8544   91.1454   17.9918 O.co2   1  UNL1       -0.5492
     17 C          69.3594   92.2512   17.1132 C.2     1  UNL1        0.0496
     18 O          70.6005   93.0034   17.4928 O.co2   1  UNL1       -0.5492
     19 C          62.7675   90.0482   10.6501 C.ar    1  UNL1       -0.0005
     20 C          63.1300   88.9565    9.6875 C.ar    1  UNL1       -0.0029
     21 C          62.0517   88.1409    9.0378 C.ar    1  UNL1       -0.0015
     22 C          60.6110   88.4169    9.3506 C.ar    1  UNL1        0.0235
     23 C          60.2484   89.5087   10.3132 C.ar    1  UNL1       -0.0015
     24 C          61.3266   90.3243   10.9630 C.ar    1  UNL1       -0.0029
     25 C          59.5328   87.6013    8.7009 C.3     1  UNL1        0.3242
     26 F          58.8362   88.8601    8.2766 F       1  UNL1       -0.2176
     27 C          58.4546   86.7856    8.0512 C.3     1  UNL1        0.4363
     28 F          57.3764   85.9699    7.4015 F       1  UNL1       -0.1666
     29 F          58.9447   87.2142    6.6999 F       1  UNL1       -0.1666
     30 F          58.0898   86.4757    8.7964 F       1  UNL1       -0.1666
     31 C          60.2294   86.3424    9.1253 C.3     1  UNL1        0.4363
     32 F          60.9260   85.0836    9.5496 F       1  UNL1       -0.1666
     33 F          60.1736   86.4774    9.9989 F       1  UNL1       -0.1666
     34 F          60.5733   85.6644    7.8322 F       1  UNL1       -0.1666
     35 S          63.8586   89.7545   12.3091 S.O2    1  UNL1        0.0106
     36 O          63.3503   88.6980   11.6399 O.2     1  UNL1       -0.1684
     37 O          64.4440   90.6876   13.3273 O.2     1  UNL1       -0.1684
     38 C          63.8716   88.6450   13.3185 C.ar    1  UNL1        0.1061
     39 C          63.6645   87.2266   12.8766 C.ar    1  UNL1        0.0207
     40 C          63.6774   86.1170   13.8859 C.ar    1  UNL1        0.0310
     41 C          63.8974   86.4258   15.3372 C.ar    1  UNL1        0.1402
     42 F          63.9104   85.3163   16.3466 F       1  UNL1       -0.2042
     43 C          64.1045   87.8442   15.7791 C.ar    1  UNL1        0.0310
     44 C          64.0916   88.9538   14.7698 C.ar    1  UNL1        0.0207
@<TRIPOS>UNITY_ATOM_ATTR
16 1
charge -1
@<TRIPOS>BOND
     1    16    17   ar
     2    17    18   ar
     3    17     8    1
     4     8     9    1
     5     9    10    1
     6    10    11    1
     7    11     1    1
     8     1     2    2
     9     1     3   am
    10     3     4    1
    11     4     5    1
    12     5     6    1
    13     6    19    1
    14    19    20   ar
    15    20    21   ar
    16    21    22   ar
    17    22    25    1
    18    25    26    1
    19    25    27    1
    20    27    28    1
    21    27    29    1
    22    27    30    1
    23    25    31    1
    24    31    32    1
    25    31    33    1
    26    31    34    1
    27    22    23   ar
    28    23    24   ar
    29     6    35    1
    30    35    36    2
    31    35    37    2
    32    35    38    1
    33    38    39   ar
    34    39    40   ar
    35    40    41   ar
    36    41    42    1
    37    41    43   ar
    38    43    44   ar
    39     6     7    1
    40    11    12    1
    41    12    13    1
    42    11    14    1
    43    14    15    1
    44    13     8    1
    45    15     8    1
    46     7     3    1
    47    24    19   ar
    48    44    38   ar
@<TRIPOS>MOLECULE
*****
 44 48 0 0 0
SMALL
GASTEIGER

@<TRIPOS>ATOM
      1 C          63.9786   85.4531   16.0305 C.2     1  UNL1        0.2248
      2 O          64.6326   85.3597   17.3772 O.2     1  UNL1       -0.2749
      3 N          64.1117   86.7065   15.2174 N.am    1  UNL1       -0.2774
      4 C          64.8629   87.9415   15.6177 C.3     1  UNL1        0.0956
      5 C          64.7324   88.9433   14.5090 C.3     1  UNL1        0.0497
      6 C          63.9005   88.3274   13.4233 C.3     1  UNL1        0.1533
      7 C          63.5168   86.9450   13.8612 C.3     1  UNL1        0.1198
      8 C          61.6175   81.9728   14.4298 C.3     1  UNL1        0.0321
      9 C          60.9054   83.1838   14.9553 C.3     1  UNL1        0.0057
     10 C          61.6925   84.3439   15.4889 C.3     1  UNL1        0.0090
     11 C          63.1916   84.2929   15.4969 C.3     1  UNL1        0.0691
     12 C          63.9036   83.0819   14.9713 C.3     1  UNL1        0.0090
     13 C          63.1166   81.9218   14.4378 C.3     1  UNL1        0.0057
     14 C          62.8033   83.6328   15.1945 C.3     1  UNL1        0.0090
     15 C          62.0916   82.5839   14.7120 C.3     1  UNL1        0.0057
     16 O          61.5018   79.7826   13.0369 O.co2   1  UNL1       -0.5492
     17 C          60.8304   80.8126   13.8961 C.2     1  UNL1        0.0496
     18 O          59.3720   80.6825   14.2219 O.co2   1  UNL1       -0.5492
     19 C          64.1198   89.6384   12.7281 C.ar    1  UNL1       -0.0005
     20 C          64.7422   90.7849   13.4683 C.ar    1  UNL1       -0.0029
     21 C          64.9615   92.0959   12.7731 C.ar    1  UNL1       -0.0015
     22 C          64.5584   92.2603   11.3377 C.ar    1  UNL1        0.0235
     23 C          63.9359   91.1138   10.5975 C.ar    1  UNL1       -0.0015
     24 C          63.7166   89.8028   11.2927 C.ar    1  UNL1       -0.0029
     25 C          64.7777   93.5713   10.6426 C.3     1  UNL1        0.3242
     26 F          63.6099   93.2902    9.7441 F       1  UNL1       -0.2176
     27 C          64.9970   94.8822    9.9474 C.3     1  UNL1        0.4363
     28 F          65.2163   96.1932    9.2522 F       1  UNL1       -0.1666
     29 F          66.1875   94.3073    9.2388 F       1  UNL1       -0.1666
     30 F          64.3151   95.3136   10.3127 F       1  UNL1       -0.1666
     31 C          65.9455   93.8524   11.5410 C.3     1  UNL1        0.4363
     32 F          67.1133   94.1334   12.4395 F       1  UNL1       -0.1666
     33 F          65.5916   94.5452   11.9644 F       1  UNL1       -0.1666
     34 F          66.9530   92.8068   11.1645 F       1  UNL1       -0.1666
     35 S          63.1144   87.9856   12.1924 S.O2    1  UNL1        0.0106
     36 O          63.7119   86.8699   11.7226 O.2     1  UNL1       -0.1684
     37 O          62.2342   89.1780   12.4234 O.2     1  UNL1       -0.1684
     38 C          62.3283   87.6438   10.9615 C.ar    1  UNL1        0.1061
     39 C          61.2119   88.5390   10.5119 C.ar    1  UNL1        0.0207
     40 C          60.4257   88.1972    9.2810 C.ar    1  UNL1        0.0310
     41 C          60.7561   86.9601    8.4996 C.ar    1  UNL1        0.1402
     42 F          59.9700   86.6183    7.2686 F       1  UNL1       -0.2042
     43 C          61.8725   86.0649    8.9492 C.ar    1  UNL1        0.0310
     44 C          62.6587   86.4067   10.1801 C.ar    1  UNL1        0.0207
@<TRIPOS>UNITY_ATOM_ATTR
16 1
charge -1
@<TRIPOS>BOND
     1    16    17   ar
     2    17    18   ar
     3    17     8    1
     4     8     9    1
     5     9    10    1
     6    10    11    1
     7    11     1    1
     8     1     2    2
     9     1     3   am
    10     3     4    1
    11     4     5    1
    12     5     6    1
    13     6    19    1
    14    19    20   ar
    15    20    21   ar
    16    21    22   ar
    17    22    25    1
    18    25    26    1
    19    25    27    1
    20    27    28    1
    21    27    29    1
    22    27    30    1
    23    25    31    1
    24    31    32    1
    25    31    33    1
    26    31    34    1
    27    22    23   ar
    28    23    24   ar
    29     6    35    1
    30    35    36    2
    31    35    37    2
    32    35    38    1
    33    38    39   ar
    34    39    40   ar
    35    40    41   ar
    36    41    42    1
    37    41    43   ar
    38    43    44   ar
    39     6     7    1
    40    11    12    1
    41    12    13    1
    42    11    14    1
    43    14    15    1
    44    13     8    1
    45    15     8    1
    46     7     3    1
    47    24    19   ar
    48    44    38   ar
@<TRIPOS>MOLECULE
*****
 44 48 0 0 0
SMALL
GASTEIGER

@<TRIPOS>ATOM
      1 C          66.8575   94.2687   13.6632 C.2     1  UNL1        0.2248
      2 O          67.8073   95.0032   14.5624 O.2     1  UNL1       -0.2749
      3 N          66.2693   92.9605   14.1020 N.am    1  UNL1       -0.2774
      4 C          66.5361   92.2666   15.4048 C.3     1  UNL1        0.0956
      5 C          65.7428   90.9937   15.4230 C.3     1  UNL1        0.0497
      6 C          64.9856   90.9009   14.1314 C.3     1  UNL1        0.1533
      7 C          65.3111   92.1164   13.3150 C.3     1  UNL1        0.1198
      8 C          65.7728   95.9901    9.6494 C.3     1  UNL1        0.0321
      9 C          65.7291   96.8560   10.8734 C.3     1  UNL1        0.0057
     10 C          66.0907   96.2822   12.2113 C.3     1  UNL1        0.0090
     11 C          66.4959   94.8425   12.3252 C.3     1  UNL1        0.0691
     12 C          66.5396   93.9766   11.1012 C.3     1  UNL1        0.0090
     13 C          66.1781   94.5503    9.7633 C.3     1  UNL1        0.0057
     14 C          66.3066   95.1121   11.5707 C.3     1  UNL1        0.0090
     15 C          65.9796   95.6309   10.3609 C.3     1  UNL1        0.0057
     16 O          63.9770   96.8554    7.9833 O.co2   1  UNL1       -0.5492
     17 C          65.4112   96.5638    8.3115 C.2     1  UNL1        0.0496
     18 O          66.4840   96.8460    7.3017 O.co2   1  UNL1       -0.5492
     19 C          64.4798   89.6095   14.7028 C.ar    1  UNL1       -0.0005
     20 C          63.5929   89.6210   15.9124 C.ar    1  UNL1       -0.0029
     21 C          63.0871   88.3295   16.4838 C.ar    1  UNL1       -0.0015
     22 C          63.4682   87.0267   15.8456 C.ar    1  UNL1        0.0235
     23 C          64.3551   87.0153   14.6359 C.ar    1  UNL1       -0.0015
     24 C          64.8609   88.3066   14.0645 C.ar    1  UNL1       -0.0029
     25 C          62.9624   85.7354   16.4170 C.3     1  UNL1        0.3242
     26 F          62.1061   86.4985   17.3836 F       1  UNL1       -0.2176
     27 C          62.4565   84.4440   16.9884 C.3     1  UNL1        0.4363
     28 F          61.9507   83.1527   17.5598 F       1  UNL1       -0.1666
     29 F          62.3603   85.0811   18.3429 F       1  UNL1       -0.1666
     30 F          62.4765   83.9777   16.2357 F       1  UNL1       -0.1666
     31 C          63.8186   84.9723   15.4503 C.3     1  UNL1        0.4363
     32 F          64.6749   84.2091   14.4837 F       1  UNL1       -0.1666
     33 F          64.5319   84.9013   15.9707 F       1  UNL1       -0.1666
     34 F          62.9471   84.8142   14.2398 F       1  UNL1       -0.1666
     35 S          64.1228   90.5381   12.9593 S.O2    1  UNL1        0.0106
     36 O          63.0002   90.0417   13.5213 O.2     1  UNL1       -0.1684
     37 O          65.1932   91.0161   12.0234 O.2     1  UNL1       -0.1684
     38 C          63.2600   90.1753   11.7872 C.ar    1  UNL1        0.1061
     39 C          63.0011   91.1825   10.7062 C.ar    1  UNL1        0.0207
     40 C          62.1383   90.8198    9.5340 C.ar    1  UNL1        0.0310
     41 C          61.5342   89.4498    9.4429 C.ar    1  UNL1        0.1402
     42 F          60.6713   89.0870    8.2708 F       1  UNL1       -0.2042
     43 C          61.7930   88.4426   10.5240 C.ar    1  UNL1        0.0310
     44 C          62.6559   88.8054   11.6961 C.ar    1  UNL1        0.0207
@<TRIPOS>UNITY_ATOM_ATTR
16 1
charge -1
@<TRIPOS>BOND
     1    16    17   ar
     2    17    18   ar
     3    17     8    1
     4     8     9    1
     5     9    10    1
     6    10    11    1
     7    11     1    1
     8     1     2    2
     9     1     3   am
    10     3     4    1
    11     4     5    1
    12     5     6    1
    13     6    19    1
    14    19    20   ar
    15    20    21   ar
    16    21    22   ar
    17    22    25    1
    18    25    26    1
    19    25    27    1
    20    27    28    1
    21    27    29    1
    22    27    30    1
    23    25    31    1
    24    31    32    1
    25    31    33    1
    26    31    34    1
    27    22    23   ar
    28    23    24   ar
    29     6    35    1
    30    35    36    2
    31    35    37    2
    32    35    38    1
    33    38    39   ar
    34    39    40   ar
    35    40    41   ar
    36    41    42    1
    37    41    43   ar
    38    43    44   ar
    39     6     7    1
    40    11    12    1
    41    12    13    1
    42    11    14    1
    43    14    15    1
    44    13     8    1
    45    15     8    1
    46     7     3    1
    47    24    19   ar
    48    44    38   ar
