@<TRIPOS>MOLECULE
*****
 45 50 0 0 0
SMALL
GASTEIGER

@<TRIPOS>ATOM
      1 C          60.8564   87.8133    8.9708 C.ar    1  UNL1        0.1348
      2 C          60.5741   86.4626    9.5588 C.ar    1  UNL1        0.0346
      3 C          61.2157   86.0591   10.8532 C.ar    1  UNL1        0.0065
      4 C          62.1397   87.0063   11.5596 C.ar    1  UNL1        0.0432
      5 C          62.4221   88.3570   10.9715 C.ar    1  UNL1        0.1256
      6 N          61.7804   88.7605    9.6771 N.ar    1  UNL1       -0.2222
      7 C          62.7813   86.6027   12.8540 C.ar    1  UNL1        0.0851
      8 C          63.3862   85.2644   13.1586 C.ar    1  UNL1        0.1035
      9 N          63.9095   85.3012   14.5639 N.ar    1  UNL1       -0.2263
     10 C          63.6280   86.6624   15.1278 C.ar    1  UNL1        0.1478
     11 C          63.9165   87.2733   16.4670 C.ar    1  UNL1        0.0374
     12 C          63.5077   88.6886   16.7494 C.ar    1  UNL1        0.0046
     13 C          62.8105   89.4931   15.6926 C.ar    1  UNL1        0.0191
     14 C          62.5220   88.8822   14.3534 C.ar    1  UNL1        0.0814
     15 N          62.9308   87.4667   14.0710 N.ar    1  UNL1       -0.2888
     16 C          63.4557   84.0945   12.2224 C.ar    1  UNL1        0.0723
     17 C          64.1544   84.2310   10.9020 C.ar    1  UNL1        0.0078
     18 C          64.2239   83.0611    9.9658 C.ar    1  UNL1        0.0209
     19 C          63.5946   81.7547   10.3498 C.ar    1  UNL1        0.1021
     20 N          62.8959   81.6183   11.6700 N.ar    1  UNL1       -0.2101
     21 C          62.8264   82.7882   12.6063 C.ar    1  UNL1        0.2264
     22 O          62.1276   82.6516   13.9266 O.3     1  UNL1       -0.4561
     23 C          61.4682   81.3558   14.2956 C.3     1  UNL1        0.2542
     24 C          59.6588   89.6005    7.5142 C.2     1  UNL1        0.2414
     25 O          59.7444   90.5807    8.6465 O.2     1  UNL1       -0.2733
     26 N          60.2148   88.2169    7.6764 N.am    1  UNL1       -0.2682
     27 H          60.1586   87.5736    6.9332 H       1  UNL1        0.1563
     28 C          59.0172   90.0041    6.2198 C.3     1  UNL1        0.1319
     29 C          59.8682   90.4502    5.0679 C.3     1  UNL1        0.0270
     30 C          56.8274   90.9492    5.1894 C.3     1  UNL1        0.0862
     31 N          57.5246   89.9614    6.0773 N.3     1  UNL1       -0.2902
     32 H          57.2886   89.0330    5.7270 H       1  UNL1        0.1237
     33 C          63.3461   89.3042   11.6779 C.1     1  UNL1       -0.0404
     34 C          64.2701   90.2514   12.3843 C.1     1  UNL1       -0.0583
     35 C          65.1942   91.1987   13.0907 C.ar    1  UNL1        0.0420
     36 C          65.2216   92.6477   12.7042 C.ar    1  UNL1        0.0083
     37 C          66.1457   93.5949   13.4106 C.ar    1  UNL1        0.0018
     38 C          67.0423   93.0930   14.5034 C.ar    1  UNL1        0.0137
     39 C          67.9663   94.0403   15.2098 C.ar    1  UNL1        0.0594
     40 C          67.9938   95.4893   14.8234 C.3     1  UNL1        0.0521
     41 N          68.8629   93.5384   16.3026 N.ar    1  UNL1       -0.2481
     42 C          68.8354   92.0892   16.6890 C.ar    1  UNL1        0.0984
     43 C          67.9114   91.1420   15.9827 C.ar    1  UNL1        0.0207
     44 C          67.0148   91.6439   14.8899 C.ar    1  UNL1        0.0033
     45 C          66.0908   90.6968   14.1835 C.ar    1  UNL1        0.0083
@<TRIPOS>BOND
     1    30    31    1
     2    31    28    1
     3    28    29    1
     4    28    24    1
     5    24    25    2
     6    24    26   am
     7    26     1    1
     8     1     2   ar
     9     2     3   ar
    10     3     4   ar
    11     4     7    1
    12     7     8   ar
    13     8    16    1
    14    16    17   ar
    15    17    18   ar
    16    18    19   ar
    17    19    20   ar
    18    20    21   ar
    19    21    22    1
    20    22    23    1
    21     8     9   ar
    22     9    10   ar
    23    10    11   ar
    24    11    12   ar
    25    12    13   ar
    26    13    14   ar
    27    14    15   ar
    28     4     5   ar
    29     5    33    1
    30    33    34    3
    31    34    35    1
    32    35    36   ar
    33    36    37   ar
    34    37    38   ar
    35    38    39   ar
    36    39    40    1
    37    39    41   ar
    38    41    42   ar
    39    42    43   ar
    40    43    44   ar
    41    44    45   ar
    42     5     6   ar
    43     6     1   ar
    44    15     7   ar
    45    45    35   ar
    46    21    16   ar
    47    15    10   ar
    48    44    38   ar
    49    31    32    1
    50    26    27    1
@<TRIPOS>MOLECULE
*****
 45 50 0 0 0
SMALL
GASTEIGER

@<TRIPOS>ATOM
      1 C          59.1879   88.9216    7.0996 C.ar    1  UNL1        0.1348
      2 C          59.0043   87.4361    7.1961 C.ar    1  UNL1        0.0346
      3 C          59.7920   86.6465    8.1991 C.ar    1  UNL1        0.0065
      4 C          60.7634   87.3425    9.1057 C.ar    1  UNL1        0.0432
      5 C          60.9470   88.8280    9.0093 C.ar    1  UNL1        0.1256
      6 N          60.1593   89.6176    8.0062 N.ar    1  UNL1       -0.2222
      7 C          61.5511   86.5529   10.1087 C.ar    1  UNL1        0.0851
      8 C          61.5493   86.7628   11.5939 C.ar    1  UNL1        0.1035
      9 N          62.4760   85.7545   12.2058 N.ar    1  UNL1       -0.2263
     10 C          63.0506   84.9212   11.0987 C.ar    1  UNL1        0.1478
     11 C          64.0204   83.7770   11.1033 C.ar    1  UNL1        0.0374
     12 C          64.4186   83.1262    9.8118 C.ar    1  UNL1        0.0046
     13 C          63.8470   83.6196    8.5157 C.ar    1  UNL1        0.0191
     14 C          62.8772   84.7639    8.5111 C.ar    1  UNL1        0.0814
     15 N          62.4789   85.4147    9.8027 N.ar    1  UNL1       -0.2888
     16 C          60.7595   87.7993   12.3369 C.ar    1  UNL1        0.0723
     17 C          59.3321   88.0666   11.9609 C.ar    1  UNL1        0.0078
     18 C          58.5423   89.1030   12.7039 C.ar    1  UNL1        0.0209
     19 C          59.1797   89.8721   13.8229 C.ar    1  UNL1        0.1021
     20 N          60.6070   89.6048   14.1989 N.ar    1  UNL1       -0.2101
     21 C          61.3969   88.5684   13.4559 C.ar    1  UNL1        0.2264
     22 O          62.8242   88.3012   13.8319 O.3     1  UNL1       -0.4561
     23 C          63.2294   88.2880   15.2761 C.3     1  UNL1        0.2542
     24 C          59.0662   90.8006    5.3095 C.2     1  UNL1        0.2414
     25 O          60.5200   91.1005    5.5254 O.2     1  UNL1       -0.2733
     26 N          58.4002   89.7112    6.0966 N.am    1  UNL1       -0.2682
     27 H          57.4460   89.5144    5.9549 H       1  UNL1        0.1563
     28 C          58.2785   91.5901    4.3065 C.3     1  UNL1        0.1319
     29 C          56.8163   91.8397    4.5297 C.3     1  UNL1        0.0270
     30 C          60.0131   93.1833    3.2097 C.3     1  UNL1        0.0862
     31 N          58.9529   92.1301    3.0803 N.3     1  UNL1       -0.2902
     32 H          59.3833   91.3357    2.6070 H       1  UNL1        0.1237
     33 C          61.9185   89.5241    9.9159 C.1     1  UNL1       -0.0404
     34 C          62.8899   90.2201   10.8224 C.1     1  UNL1       -0.0583
     35 C          63.8613   90.9162   11.7290 C.ar    1  UNL1        0.0420
     36 C          64.2943   90.2626   13.0078 C.ar    1  UNL1        0.0083
     37 C          65.2657   90.9587   13.9143 C.ar    1  UNL1        0.0018
     38 C          65.8041   92.3083   13.5421 C.ar    1  UNL1        0.0137
     39 C          66.7755   93.0044   14.4487 C.ar    1  UNL1        0.0594
     40 C          67.2085   92.3508   15.7275 C.3     1  UNL1        0.0521
     41 N          67.3140   94.3540   14.0765 N.ar    1  UNL1       -0.2481
     42 C          66.8809   95.0076   12.7976 C.ar    1  UNL1        0.0984
     43 C          65.9096   94.3115   11.8911 C.ar    1  UNL1        0.0207
     44 C          65.3711   92.9619   12.2633 C.ar    1  UNL1        0.0033
     45 C          64.3998   92.2658   11.3568 C.ar    1  UNL1        0.0083
@<TRIPOS>BOND
     1    30    31    1
     2    31    28    1
     3    28    29    1
     4    28    24    1
     5    24    25    2
     6    24    26   am
     7    26     1    1
     8     1     2   ar
     9     2     3   ar
    10     3     4   ar
    11     4     7    1
    12     7     8   ar
    13     8    16    1
    14    16    17   ar
    15    17    18   ar
    16    18    19   ar
    17    19    20   ar
    18    20    21   ar
    19    21    22    1
    20    22    23    1
    21     8     9   ar
    22     9    10   ar
    23    10    11   ar
    24    11    12   ar
    25    12    13   ar
    26    13    14   ar
    27    14    15   ar
    28     4     5   ar
    29     5    33    1
    30    33    34    3
    31    34    35    1
    32    35    36   ar
    33    36    37   ar
    34    37    38   ar
    35    38    39   ar
    36    39    40    1
    37    39    41   ar
    38    41    42   ar
    39    42    43   ar
    40    43    44   ar
    41    44    45   ar
    42     5     6   ar
    43     6     1   ar
    44    15     7   ar
    45    45    35   ar
    46    21    16   ar
    47    15    10   ar
    48    44    38   ar
    49    31    32    1
    50    26    27    1
@<TRIPOS>MOLECULE
*****
 45 50 0 0 0
SMALL
GASTEIGER

@<TRIPOS>ATOM
      1 C          64.3903   89.7315   13.4892 C.ar    1  UNL1        0.1348
      2 C          63.6967   90.5450   12.4370 C.ar    1  UNL1        0.0346
      3 C          62.8480   89.8665   11.4028 C.ar    1  UNL1        0.0065
      4 C          62.6930   88.3747   11.4208 C.ar    1  UNL1        0.0432
      5 C          63.3866   87.5613   12.4730 C.ar    1  UNL1        0.1256
      6 N          64.2352   88.2397   13.5072 N.ar    1  UNL1       -0.2222
      7 C          61.8444   87.6963   10.3866 C.ar    1  UNL1        0.0851
      8 C          60.3807   87.9293   10.1559 C.ar    1  UNL1        0.1035
      9 N          59.9422   87.0428    9.0282 N.ar    1  UNL1       -0.2263
     10 C          61.1349   86.2618    8.5618 C.ar    1  UNL1        0.1478
     11 C          61.3024   85.2351    7.4812 C.ar    1  UNL1        0.0374
     12 C          62.6455   84.6122    7.2401 C.ar    1  UNL1        0.0046
     13 C          63.8212   85.0161    8.0796 C.ar    1  UNL1        0.0191
     14 C          63.6537   86.0428    9.1602 C.ar    1  UNL1        0.0814
     15 N          62.3105   86.6657    9.4014 N.ar    1  UNL1       -0.2888
     16 C          59.5086   88.8817   10.9190 C.ar    1  UNL1        0.0723
     17 C          58.7256   88.3972   12.1033 C.ar    1  UNL1        0.0078
     18 C          57.8535   89.3495   12.8664 C.ar    1  UNL1        0.0209
     19 C          57.7643   90.7865   12.4453 C.ar    1  UNL1        0.1021
     20 N          58.5472   91.2710   11.2612 N.ar    1  UNL1       -0.2101
     21 C          59.4193   90.3186   10.4980 C.ar    1  UNL1        0.2264
     22 O          60.2022   90.8032    9.3138 O.3     1  UNL1       -0.4561
     23 C          60.0696   90.1076    7.9915 C.3     1  UNL1        0.2542
     24 C          66.2302   91.4572   14.1108 C.2     1  UNL1        0.2414
     25 O          66.3730   91.8262   12.6639 O.2     1  UNL1       -0.2733
     26 N          65.2389   90.4100   14.5235 N.am    1  UNL1       -0.2682
     27 H          65.1451   90.1678   15.4731 H       1  UNL1        0.1563
     28 C          67.0788   92.1357   15.1450 C.3     1  UNL1        0.1319
     29 C          66.4504   92.6702   16.3978 C.3     1  UNL1        0.0270
     30 C          69.3083   93.3909   15.5963 C.3     1  UNL1        0.0862
     31 N          68.5558   92.2796   14.9265 N.3     1  UNL1       -0.2902
     32 H          68.9852   91.4066   15.2331 H       1  UNL1        0.1237
     33 C          63.2317   86.0694   12.4910 C.1     1  UNL1       -0.0404
     34 C          63.0766   84.5776   12.5091 C.1     1  UNL1       -0.0583
     35 C          62.9217   83.0856   12.5271 C.ar    1  UNL1        0.0420
     36 C          62.6617   82.3742   13.8218 C.ar    1  UNL1        0.0083
     37 C          62.5067   80.8824   13.8398 C.ar    1  UNL1        0.0018
     38 C          62.6117   80.1020   12.5631 C.ar    1  UNL1        0.0137
     39 C          62.4567   78.6101   12.5811 C.ar    1  UNL1        0.0594
     40 C          62.1968   77.8986   13.8758 C.3     1  UNL1        0.0521
     41 N          62.5617   77.8296   11.3044 N.ar    1  UNL1       -0.2481
     42 C          62.8217   78.5412   10.0097 C.ar    1  UNL1        0.0984
     43 C          62.9767   80.0330    9.9917 C.ar    1  UNL1        0.0207
     44 C          62.8717   80.8134   11.2684 C.ar    1  UNL1        0.0033
     45 C          63.0266   82.3052   11.2504 C.ar    1  UNL1        0.0083
@<TRIPOS>BOND
     1    30    31    1
     2    31    28    1
     3    28    29    1
     4    28    24    1
     5    24    25    2
     6    24    26   am
     7    26     1    1
     8     1     2   ar
     9     2     3   ar
    10     3     4   ar
    11     4     7    1
    12     7     8   ar
    13     8    16    1
    14    16    17   ar
    15    17    18   ar
    16    18    19   ar
    17    19    20   ar
    18    20    21   ar
    19    21    22    1
    20    22    23    1
    21     8     9   ar
    22     9    10   ar
    23    10    11   ar
    24    11    12   ar
    25    12    13   ar
    26    13    14   ar
    27    14    15   ar
    28     4     5   ar
    29     5    33    1
    30    33    34    3
    31    34    35    1
    32    35    36   ar
    33    36    37   ar
    34    37    38   ar
    35    38    39   ar
    36    39    40    1
    37    39    41   ar
    38    41    42   ar
    39    42    43   ar
    40    43    44   ar
    41    44    45   ar
    42     5     6   ar
    43     6     1   ar
    44    15     7   ar
    45    45    35   ar
    46    21    16   ar
    47    15    10   ar
    48    44    38   ar
    49    31    32    1
    50    26    27    1
@<TRIPOS>MOLECULE
*****
 45 50 0 0 0
SMALL
GASTEIGER

@<TRIPOS>ATOM
      1 C          60.5113   90.6666    5.3914 C.ar    1  UNL1        0.1348
      2 C          59.5157   89.5569    5.5564 C.ar    1  UNL1        0.0346
      3 C          59.4106   88.8320    6.8654 C.ar    1  UNL1        0.0065
      4 C          60.3011   89.2168    8.0094 C.ar    1  UNL1        0.0432
      5 C          61.2967   90.3265    7.8444 C.ar    1  UNL1        0.1256
      6 N          61.4018   91.0514    6.5355 N.ar    1  UNL1       -0.2222
      7 C          60.1960   88.4918    9.3184 C.ar    1  UNL1        0.0851
      8 C          60.6128   87.0744    9.5772 C.ar    1  UNL1        0.1035
      9 N          60.3300   86.7636   11.0172 N.ar    1  UNL1       -0.2263
     10 C          59.7385   87.9890   11.6483 C.ar    1  UNL1        0.1478
     11 C          59.2645   88.2703   13.0434 C.ar    1  UNL1        0.0374
     12 C          58.7078   89.6197   13.3886 C.ar    1  UNL1        0.0046
     13 C          58.6249   90.6879   12.3387 C.ar    1  UNL1        0.0191
     14 C          59.0989   90.4066   10.9436 C.ar    1  UNL1        0.0814
     15 N          59.6556   89.0571   10.5984 N.ar    1  UNL1       -0.2888
     16 C          61.2078   86.1329    8.5725 C.ar    1  UNL1        0.0723
     17 C          60.5229   85.9091    7.2568 C.ar    1  UNL1        0.0078
     18 C          61.1180   84.9676    6.2520 C.ar    1  UNL1        0.0209
     19 C          62.3979   84.2499    6.5629 C.ar    1  UNL1        0.1021
     20 N          63.0828   84.4737    7.8785 N.ar    1  UNL1       -0.2101
     21 C          62.4877   85.4152    8.8832 C.ar    1  UNL1        0.2264
     22 O          63.1727   85.6389   10.1989 O.3     1  UNL1       -0.4561
     23 C          63.0624   84.6113   11.2861 C.3     1  UNL1        0.2542
     24 C          59.5833   92.4113    3.7048 C.2     1  UNL1        0.2414
     25 O          58.4450   92.7063    4.6362 O.2     1  UNL1       -0.2733
     26 N          60.6164   91.3915    4.0824 N.am    1  UNL1       -0.2682
     27 H          61.3635   91.1979    3.4711 H       1  UNL1        0.1563
     28 C          59.6884   93.1362    2.3958 C.3     1  UNL1        0.1319
     29 C          60.3479   94.4822    2.3347 C.3     1  UNL1        0.0270
     30 C          60.0084   92.3497   -0.0596 C.3     1  UNL1        0.0862
     31 N          59.1341   92.5153    1.1480 N.3     1  UNL1       -0.2902
     32 H          58.8054   91.5841    1.4034 H       1  UNL1        0.1237
     33 C          62.1873   90.7113    8.9885 C.1     1  UNL1       -0.0404
     34 C          63.0779   91.0961   10.1325 C.1     1  UNL1       -0.0583
     35 C          63.9684   91.4809   11.2766 C.ar    1  UNL1        0.0420
     36 C          65.2785   92.1616   11.0112 C.ar    1  UNL1        0.0083
     37 C          66.1690   92.5464   12.1553 C.ar    1  UNL1        0.0018
     38 C          65.7495   92.2505   13.5647 C.ar    1  UNL1        0.0137
     39 C          66.6400   92.6353   14.7088 C.ar    1  UNL1        0.0594
     40 C          67.9501   93.3160   14.4434 C.3     1  UNL1        0.0521
     41 N          66.2205   92.3394   16.1182 N.ar    1  UNL1       -0.2481
     42 C          64.9104   91.6587   16.3835 C.ar    1  UNL1        0.0984
     43 C          64.0199   91.2739   15.2395 C.ar    1  UNL1        0.0207
     44 C          64.4394   91.5698   13.8301 C.ar    1  UNL1        0.0033
     45 C          63.5489   91.1850   12.6860 C.ar    1  UNL1        0.0083
@<TRIPOS>BOND
     1    30    31    1
     2    31    28    1
     3    28    29    1
     4    28    24    1
     5    24    25    2
     6    24    26   am
     7    26     1    1
     8     1     2   ar
     9     2     3   ar
    10     3     4   ar
    11     4     7    1
    12     7     8   ar
    13     8    16    1
    14    16    17   ar
    15    17    18   ar
    16    18    19   ar
    17    19    20   ar
    18    20    21   ar
    19    21    22    1
    20    22    23    1
    21     8     9   ar
    22     9    10   ar
    23    10    11   ar
    24    11    12   ar
    25    12    13   ar
    26    13    14   ar
    27    14    15   ar
    28     4     5   ar
    29     5    33    1
    30    33    34    3
    31    34    35    1
    32    35    36   ar
    33    36    37   ar
    34    37    38   ar
    35    38    39   ar
    36    39    40    1
    37    39    41   ar
    38    41    42   ar
    39    42    43   ar
    40    43    44   ar
    41    44    45   ar
    42     5     6   ar
    43     6     1   ar
    44    15     7   ar
    45    45    35   ar
    46    21    16   ar
    47    15    10   ar
    48    44    38   ar
    49    31    32    1
    50    26    27    1
@<TRIPOS>MOLECULE
*****
 45 50 0 0 0
SMALL
GASTEIGER

@<TRIPOS>ATOM
      1 C          60.6273   90.8365    5.3406 C.ar    1  UNL1        0.1348
      2 C          59.6253   89.7287    5.4770 C.ar    1  UNL1        0.0346
      3 C          59.5054   88.9811    6.7719 C.ar    1  UNL1        0.0065
      4 C          60.3875   89.3414    7.9304 C.ar    1  UNL1        0.0432
      5 C          61.3895   90.4492    7.7939 C.ar    1  UNL1        0.1256
      6 N          61.5094   91.1968    6.4990 N.ar    1  UNL1       -0.2222
      7 C          60.2676   88.5938    9.2253 C.ar    1  UNL1        0.0851
      8 C          60.6696   87.1680    9.4607 C.ar    1  UNL1        0.1035
      9 N          60.3751   86.8338   10.8930 N.ar    1  UNL1       -0.2263
     10 C          59.7912   88.0531   11.5429 C.ar    1  UNL1        0.1478
     11 C          59.3114   88.3134   12.9400 C.ar    1  UNL1        0.0374
     12 C          58.7651   89.6615   13.3064 C.ar    1  UNL1        0.0046
     13 C          58.6987   90.7493   12.2757 C.ar    1  UNL1        0.0191
     14 C          59.1785   90.4890   10.8786 C.ar    1  UNL1        0.0814
     15 N          59.7248   89.1408   10.5122 N.ar    1  UNL1       -0.2888
     16 C          61.2620   86.2393    8.4425 C.ar    1  UNL1        0.0723
     17 C          62.6587   85.7223    8.6217 C.ar    1  UNL1        0.0078
     18 C          63.2511   84.7937    7.6035 C.ar    1  UNL1        0.0209
     19 C          62.4469   84.3820    6.4061 C.ar    1  UNL1        0.1021
     20 N          61.0502   84.8990    6.2269 N.ar    1  UNL1       -0.2101
     21 C          60.4578   85.8277    7.2451 C.ar    1  UNL1        0.2264
     22 O          59.0611   86.3446    7.0658 O.3     1  UNL1       -0.4561
     23 C          58.0701   86.2315    8.1861 C.3     1  UNL1        0.2542
     24 C          59.5803   92.3670    3.5208 C.2     1  UNL1        0.2414
     25 O          58.2935   92.4023    4.2909 O.2     1  UNL1       -0.2733
     26 N          60.7471   91.5841    4.0457 N.am    1  UNL1       -0.2682
     27 H          61.5917   91.5609    3.5402 H       1  UNL1        0.1563
     28 C          59.7002   93.1145    2.2259 C.3     1  UNL1        0.1319
     29 C          60.5115   94.3745    2.1596 C.3     1  UNL1        0.0270
     30 C          59.7947   92.3491   -0.2550 C.3     1  UNL1        0.0862
     31 N          59.0088   92.6022    0.9973 N.3     1  UNL1       -0.2902
     32 H          58.5702   91.7176    1.2535 H       1  UNL1        0.1237
     33 C          62.2716   90.8096    8.9524 C.1     1  UNL1       -0.0404
     34 C          63.1538   91.1699   10.1108 C.1     1  UNL1       -0.0583
     35 C          64.0359   91.5302   11.2693 C.ar    1  UNL1        0.0420
     36 C          65.3653   92.1808   11.0258 C.ar    1  UNL1        0.0083
     37 C          66.2474   92.5411   12.1842 C.ar    1  UNL1        0.0018
     38 C          65.8001   92.2508   13.5862 C.ar    1  UNL1        0.0137
     39 C          66.6823   92.6112   14.7447 C.ar    1  UNL1        0.0594
     40 C          68.0117   93.2618   14.5012 C.3     1  UNL1        0.0521
     41 N          66.2350   92.3209   16.1467 N.ar    1  UNL1       -0.2481
     42 C          64.9055   91.6702   16.3902 C.ar    1  UNL1        0.0984
     43 C          64.0234   91.3099   15.2318 C.ar    1  UNL1        0.0207
     44 C          64.4707   91.6002   13.8298 C.ar    1  UNL1        0.0033
     45 C          63.5886   91.2399   12.6713 C.ar    1  UNL1        0.0083
@<TRIPOS>BOND
     1    30    31    1
     2    31    28    1
     3    28    29    1
     4    28    24    1
     5    24    25    2
     6    24    26   am
     7    26     1    1
     8     1     2   ar
     9     2     3   ar
    10     3     4   ar
    11     4     7    1
    12     7     8   ar
    13     8    16    1
    14    16    17   ar
    15    17    18   ar
    16    18    19   ar
    17    19    20   ar
    18    20    21   ar
    19    21    22    1
    20    22    23    1
    21     8     9   ar
    22     9    10   ar
    23    10    11   ar
    24    11    12   ar
    25    12    13   ar
    26    13    14   ar
    27    14    15   ar
    28     4     5   ar
    29     5    33    1
    30    33    34    3
    31    34    35    1
    32    35    36   ar
    33    36    37   ar
    34    37    38   ar
    35    38    39   ar
    36    39    40    1
    37    39    41   ar
    38    41    42   ar
    39    42    43   ar
    40    43    44   ar
    41    44    45   ar
    42     5     6   ar
    43     6     1   ar
    44    15     7   ar
    45    45    35   ar
    46    21    16   ar
    47    15    10   ar
    48    44    38   ar
    49    31    32    1
    50    26    27    1
