@<TRIPOS>MOLECULE
*****
 23 26 0 0 0
SMALL
GASTEIGER

@<TRIPOS>ATOM
      1 N          63.7300   90.4097   12.9314 N.ar    1  UNL1       -0.3085
      2 C          64.4673   89.9314   14.1471 C.ar    1  UNL1        0.1215
      3 N          65.7434   90.7127   14.2524 N.ar    1  UNL1       -0.2309
      4 C          65.7948   91.6738   13.1019 C.ar    1  UNL1        0.0983
      5 C          66.8140   92.6953   12.6923 C.ar    1  UNL1        0.0206
      6 C          66.5888   93.5295   11.4662 C.ar    1  UNL1        0.0016
      7 C          65.3445   93.3422   10.6497 C.ar    1  UNL1        0.0016
      8 C          64.3253   92.3207   11.0594 C.ar    1  UNL1        0.0188
      9 C          64.5505   91.4865   12.2855 C.ar    1  UNL1        0.0789
     10 C          64.0089   88.8600   15.0915 C.3     1  UNL1        0.0729
     11 C          63.2976   89.2314   16.3588 C.3     1  UNL1        0.0103
     12 C          62.8392   88.1600   17.3032 C.3     1  UNL1        0.0178
     13 C          63.0921   86.7172   16.9804 C.3     1  UNL1        0.0722
     14 N          63.8033   86.3458   15.7131 N.3     1  UNL1       -0.2711
     15 C          64.0563   84.9029   15.3902 C.3     1  UNL1        0.0896
     16 C          64.2617   87.4172   14.7686 C.3     1  UNL1        0.0796
     17 C          62.4050   89.9005   12.4468 C.3     1  UNL1        0.1596
     18 C          62.5132   84.8996   10.7556 C.3     1  UNL1        0.0527
     19 C          62.3944   86.3947   10.7810 C.ar    1  UNL1        0.0661
     20 C          62.1094   87.2768    9.6018 C.ar    1  UNL1        0.0513
     21 S          62.0787   88.6974   10.0823 S.2     1  UNL1       -0.0687
     22 C          62.3447   88.6934   11.5584 C.ar    1  UNL1        0.1108
     23 N          62.5398   87.2702   11.9904 N.ar    1  UNL1       -0.2450
@<TRIPOS>BOND
     1    18    19    1
     2    19    20   ar
     3    20    21   ar
     4    21    22   ar
     5    22    17    1
     6    17     1    1
     7     1     2   ar
     8     2    10    1
     9    10    11    1
    10    11    12    1
    11    12    13    1
    12    13    14    1
    13    14    15    1
    14    14    16    1
    15     2     3   ar
    16     3     4   ar
    17     4     5   ar
    18     5     6   ar
    19     6     7   ar
    20     7     8   ar
    21     8     9   ar
    22    22    23   ar
    23    23    19   ar
    24     9     1   ar
    25    16    10    1
    26     9     4   ar
@<TRIPOS>MOLECULE
*****
 23 26 0 0 0
SMALL
GASTEIGER

@<TRIPOS>ATOM
      1 N          63.8902   89.6862   12.8661 N.ar    1  UNL1       -0.3085
      2 C          64.2367   89.5997   14.3229 C.ar    1  UNL1        0.1215
      3 N          65.0250   90.8233   14.6853 N.ar    1  UNL1       -0.2309
      4 C          65.1658   91.6660   13.4524 C.ar    1  UNL1        0.0983
      5 C          65.8419   92.9825   13.2084 C.ar    1  UNL1        0.0206
      6 C          65.8168   93.5962   11.8399 C.ar    1  UNL1        0.0016
      7 C          65.1154   92.8934   10.7155 C.ar    1  UNL1        0.0016
      8 C          64.4393   91.5769   10.9596 C.ar    1  UNL1        0.0188
      9 C          64.4644   90.9632   12.3280 C.ar    1  UNL1        0.0789
     10 C          63.8608   88.4852   15.2539 C.3     1  UNL1        0.0729
     11 C          63.2065   88.7941   16.5679 C.3     1  UNL1        0.0103
     12 C          62.8306   87.6797   17.4989 C.3     1  UNL1        0.0178
     13 C          63.1091   86.2564   17.1160 C.3     1  UNL1        0.0722
     14 N          63.7633   85.9475   15.8020 N.3     1  UNL1       -0.2711
     15 C          64.0418   84.5242   15.4190 C.3     1  UNL1        0.0896
     16 C          64.1392   87.0619   14.8710 C.3     1  UNL1        0.0796
     17 C          63.1071   88.6734   12.0844 C.3     1  UNL1        0.1596
     18 C          59.7958   89.1441    7.9985 C.3     1  UNL1        0.0527
     19 C          60.4442   89.3311    9.3382 C.ar    1  UNL1        0.0661
     20 C          59.9772   90.2565   10.4223 C.ar    1  UNL1        0.0513
     21 S          60.9178   90.1227   11.5830 S.2     1  UNL1       -0.0687
     22 C          61.9663   89.1147   11.2163 C.ar    1  UNL1        0.1108
     23 N          61.6736   88.6254    9.8288 N.ar    1  UNL1       -0.2450
@<TRIPOS>BOND
     1    18    19    1
     2    19    20   ar
     3    20    21   ar
     4    21    22   ar
     5    22    17    1
     6    17     1    1
     7     1     2   ar
     8     2    10    1
     9    10    11    1
    10    11    12    1
    11    12    13    1
    12    13    14    1
    13    14    15    1
    14    14    16    1
    15     2     3   ar
    16     3     4   ar
    17     4     5   ar
    18     5     6   ar
    19     6     7   ar
    20     7     8   ar
    21     8     9   ar
    22    22    23   ar
    23    23    19   ar
    24     9     1   ar
    25    16    10    1
    26     9     4   ar
@<TRIPOS>MOLECULE
*****
 23 26 0 0 0
SMALL
GASTEIGER

@<TRIPOS>ATOM
      1 N          63.8602   90.5625   14.3238 N.ar    1  UNL1       -0.3085
      2 C          63.5232   90.4999   12.8634 C.ar    1  UNL1        0.1215
      3 N          64.4478   91.4291   12.1343 N.ar    1  UNL1       -0.2309
      4 C          65.3562   92.0660   13.1439 C.ar    1  UNL1        0.0983
      5 C          66.4670   93.0644   13.0059 C.ar    1  UNL1        0.0206
      6 C          67.2147   93.5271   14.2211 C.ar    1  UNL1        0.0016
      7 C          66.8515   92.9915   15.5743 C.ar    1  UNL1        0.0016
      8 C          65.7407   91.9931   15.7123 C.ar    1  UNL1        0.0188
      9 C          64.9930   91.5303   14.4971 C.ar    1  UNL1        0.0789
     10 C          62.4502   89.6563   12.2415 C.3     1  UNL1        0.0729
     11 C          61.0865   90.2335   12.0026 C.3     1  UNL1        0.0103
     12 C          60.0134   89.3899   11.3806 C.3     1  UNL1        0.0178
     13 C          60.3040   87.9690   10.9976 C.3     1  UNL1        0.0722
     14 N          61.6677   87.3918   11.2366 N.3     1  UNL1       -0.2711
     15 C          61.9584   85.9709   10.8536 C.3     1  UNL1        0.0896
     16 C          62.7408   88.2354   11.8585 C.3     1  UNL1        0.0796
     17 C          63.1832   89.7923   15.4186 C.3     1  UNL1        0.1596
     18 C          64.9854   84.8937   14.6209 C.3     1  UNL1        0.0527
     19 C          64.3081   86.0820   15.2370 C.ar    1  UNL1        0.0661
     20 C          63.5641   86.0959   16.5393 C.ar    1  UNL1        0.0513
     21 S          63.0522   87.4875   16.7659 S.2     1  UNL1       -0.0687
     22 C          63.4797   88.3337   15.6035 C.ar    1  UNL1        0.1108
     23 N          64.2560   87.4651   14.6586 N.ar    1  UNL1       -0.2450
@<TRIPOS>BOND
     1    18    19    1
     2    19    20   ar
     3    20    21   ar
     4    21    22   ar
     5    22    17    1
     6    17     1    1
     7     1     2   ar
     8     2    10    1
     9    10    11    1
    10    11    12    1
    11    12    13    1
    12    13    14    1
    13    14    15    1
    14    14    16    1
    15     2     3   ar
    16     3     4   ar
    17     4     5   ar
    18     5     6   ar
    19     6     7   ar
    20     7     8   ar
    21     8     9   ar
    22    22    23   ar
    23    23    19   ar
    24     9     1   ar
    25    16    10    1
    26     9     4   ar
@<TRIPOS>MOLECULE
*****
 23 26 0 0 0
SMALL
GASTEIGER

@<TRIPOS>ATOM
      1 N          61.6103   88.1651   11.1021 N.ar    1  UNL1       -0.3085
      2 C          62.2013   86.8229   11.4173 C.ar    1  UNL1        0.1215
      3 N          61.8315   85.8819   10.3092 N.ar    1  UNL1       -0.2309
      4 C          61.0120   86.6425    9.3092 C.ar    1  UNL1        0.0983
      5 C          60.3726   86.2325    8.0158 C.ar    1  UNL1        0.0206
      6 C          59.5965   87.2336    7.2124 C.ar    1  UNL1        0.0016
      7 C          59.4598   88.6447    7.7025 C.ar    1  UNL1        0.0016
      8 C          60.0991   89.0547    8.9959 C.ar    1  UNL1        0.0188
      9 C          60.8753   88.0536    9.7993 C.ar    1  UNL1        0.0789
     10 C          63.0186   86.4816   12.6279 C.3     1  UNL1        0.0729
     11 C          63.6969   87.5699   13.4060 C.3     1  UNL1        0.0103
     12 C          64.5142   87.2286   14.6166 C.3     1  UNL1        0.0178
     13 C          64.6531   85.7991   15.0491 C.3     1  UNL1        0.0722
     14 N          63.9747   84.7108   14.2711 N.3     1  UNL1       -0.2711
     15 C          64.1135   83.2812   14.7036 C.3     1  UNL1        0.0896
     16 C          63.1574   85.0521   13.0604 C.3     1  UNL1        0.0796
     17 C          61.7328   89.4016   11.9423 C.3     1  UNL1        0.1596
     18 C          65.8021   92.7167   12.5180 C.3     1  UNL1        0.0527
     19 C          64.6784   91.9290   11.9122 C.ar    1  UNL1        0.0661
     20 C          64.2467   91.9700   10.4764 C.ar    1  UNL1        0.0513
     21 S          63.0907   91.0282   10.3129 S.2     1  UNL1       -0.0687
     22 C          62.8079   90.4051   11.6477 C.ar    1  UNL1        0.1108
     23 N          63.7892   90.9618   12.6362 N.ar    1  UNL1       -0.2450
@<TRIPOS>BOND
     1    18    19    1
     2    19    20   ar
     3    20    21   ar
     4    21    22   ar
     5    22    17    1
     6    17     1    1
     7     1     2   ar
     8     2    10    1
     9    10    11    1
    10    11    12    1
    11    12    13    1
    12    13    14    1
    13    14    15    1
    14    14    16    1
    15     2     3   ar
    16     3     4   ar
    17     4     5   ar
    18     5     6   ar
    19     6     7   ar
    20     7     8   ar
    21     8     9   ar
    22    22    23   ar
    23    23    19   ar
    24     9     1   ar
    25    16    10    1
    26     9     4   ar
@<TRIPOS>MOLECULE
*****
 23 26 0 0 0
SMALL
GASTEIGER

@<TRIPOS>ATOM
      1 N          63.5196   87.8725   13.0645 N.ar    1  UNL1       -0.3085
      2 C          63.4789   89.3689   12.9687 C.ar    1  UNL1        0.1215
      3 N          62.7872   89.7327   11.6884 N.ar    1  UNL1       -0.2309
      4 C          62.4004   88.4612   10.9930 C.ar    1  UNL1        0.0983
      5 C          61.6945   88.2017    9.6951 C.ar    1  UNL1        0.0206
      6 C          61.4413   86.7926    9.2478 C.ar    1  UNL1        0.0016
      7 C          61.8939   85.6429   10.0983 C.ar    1  UNL1        0.0016
      8 C          62.5998   85.9023   11.3961 C.ar    1  UNL1        0.0188
      9 C          62.8530   87.3115   11.8434 C.ar    1  UNL1        0.0789
     10 C          64.0326   90.3322   13.9763 C.3     1  UNL1        0.0729
     11 C          63.5480   90.2944   15.3954 C.3     1  UNL1        0.0103
     12 C          64.1018   91.2578   16.4030 C.3     1  UNL1        0.0178
     13 C          65.1401   92.2590   15.9915 C.3     1  UNL1        0.0722
     14 N          65.6247   92.2969   14.5725 N.3     1  UNL1       -0.2711
     15 C          66.6631   93.2982   14.1610 C.3     1  UNL1        0.0896
     16 C          65.0709   91.3335   13.5649 C.3     1  UNL1        0.0796
     17 C          64.1212   87.0767   14.1848 C.3     1  UNL1        0.1596
     18 C          61.8868   82.3045   14.5227 C.3     1  UNL1        0.0527
     19 C          62.9074   83.3956   14.3881 C.ar    1  UNL1        0.0661
     20 C          64.3861   83.2047   14.2253 C.ar    1  UNL1        0.0513
     21 S          65.0208   84.5603   14.1293 S.2     1  UNL1       -0.0687
     22 C          63.9343   85.5893   14.2328 C.ar    1  UNL1        0.1108
     23 N          62.6281   84.8695   14.3927 N.ar    1  UNL1       -0.2450
@<TRIPOS>BOND
     1    18    19    1
     2    19    20   ar
     3    20    21   ar
     4    21    22   ar
     5    22    17    1
     6    17     1    1
     7     1     2   ar
     8     2    10    1
     9    10    11    1
    10    11    12    1
    11    12    13    1
    12    13    14    1
    13    14    15    1
    14    14    16    1
    15     2     3   ar
    16     3     4   ar
    17     4     5   ar
    18     5     6   ar
    19     6     7   ar
    20     7     8   ar
    21     8     9   ar
    22    22    23   ar
    23    23    19   ar
    24     9     1   ar
    25    16    10    1
    26     9     4   ar
@<TRIPOS>MOLECULE
*****
 23 26 0 0 0
SMALL
GASTEIGER

@<TRIPOS>ATOM
      1 N          63.5079   89.3052   12.3793 N.ar    1  UNL1       -0.3085
      2 C          63.6400   90.7456   11.9821 C.ar    1  UNL1        0.1215
      3 N          62.6241   91.0272   10.9151 N.ar    1  UNL1       -0.2309
      4 C          61.8641   89.7609   10.6529 C.ar    1  UNL1        0.0983
      5 C          60.7452   89.4394    9.7070 C.ar    1  UNL1        0.0206
      6 C          60.1726   88.0536    9.6661 C.ar    1  UNL1        0.0016
      7 C          60.7189   86.9894   10.5710 C.ar    1  UNL1        0.0016
      8 C          61.8377   87.3108   11.5169 C.ar    1  UNL1        0.0188
      9 C          62.4103   88.6966   11.5578 C.ar    1  UNL1        0.0789
     10 C          64.6166   91.7314   12.5519 C.3     1  UNL1        0.0729
     11 C          65.2738   92.7392   11.6563 C.3     1  UNL1        0.0103
     12 C          66.2504   93.7250   12.2260 C.3     1  UNL1        0.0178
     13 C          66.5698   93.7028   13.6914 C.3     1  UNL1        0.0722
     14 N          65.9126   92.6949   14.5871 N.3     1  UNL1       -0.2711
     15 C          66.2320   92.6727   16.0525 C.3     1  UNL1        0.0896
     16 C          64.9360   91.7092   14.0173 C.3     1  UNL1        0.0796
     17 C          64.3292   88.5976   13.4161 C.3     1  UNL1        0.1596
     18 C          62.7104   86.4841   17.9760 C.3     1  UNL1        0.0527
     19 C          63.0632   87.4794   16.9106 C.ar    1  UNL1        0.0661
     20 C          62.9450   88.9705   17.0230 C.ar    1  UNL1        0.0513
     21 S          63.4048   89.5708   15.7276 S.2     1  UNL1       -0.0687
     22 C          63.8073   88.4509   14.8146 C.ar    1  UNL1        0.1108
     23 N          63.5961   87.1582   15.5457 N.ar    1  UNL1       -0.2450
@<TRIPOS>BOND
     1    18    19    1
     2    19    20   ar
     3    20    21   ar
     4    21    22   ar
     5    22    17    1
     6    17     1    1
     7     1     2   ar
     8     2    10    1
     9    10    11    1
    10    11    12    1
    11    12    13    1
    12    13    14    1
    13    14    15    1
    14    14    16    1
    15     2     3   ar
    16     3     4   ar
    17     4     5   ar
    18     5     6   ar
    19     6     7   ar
    20     7     8   ar
    21     8     9   ar
    22    22    23   ar
    23    23    19   ar
    24     9     1   ar
    25    16    10    1
    26     9     4   ar
@<TRIPOS>MOLECULE
*****
 23 26 0 0 0
SMALL
GASTEIGER

@<TRIPOS>ATOM
      1 N          64.3509   91.6258   11.8244 N.ar    1  UNL1       -0.3085
      2 C          65.4982   92.5804   11.9739 C.ar    1  UNL1        0.1215
      3 N          65.8653   92.6398   13.4271 N.ar    1  UNL1       -0.2309
      4 C          64.9449   91.7220   14.1757 C.ar    1  UNL1        0.0983
      5 C          64.8382   91.3760   15.6313 C.ar    1  UNL1        0.0206
      6 C          63.7954   90.4032   16.0964 C.ar    1  UNL1        0.0016
      7 C          62.8594   89.7765   15.1059 C.ar    1  UNL1        0.0016
      8 C          62.9661   90.1225   13.6503 C.ar    1  UNL1        0.0188
      9 C          64.0089   91.0953   13.1852 C.ar    1  UNL1        0.0789
     10 C          66.1619   93.3418   10.8650 C.3     1  UNL1        0.0729
     11 C          67.3048   92.7273   10.1126 C.3     1  UNL1        0.0103
     12 C          67.9684   93.4888    9.0036 C.3     1  UNL1        0.0178
     13 C          67.4893   94.8647    8.6471 C.3     1  UNL1        0.0722
     14 N          66.3464   95.4792    9.3996 N.3     1  UNL1       -0.2711
     15 C          65.8672   96.8552    9.0431 C.3     1  UNL1        0.0896
     16 C          65.6827   94.7178   10.5085 C.3     1  UNL1        0.0796
     17 C          63.6657   91.2651   10.5397 C.3     1  UNL1        0.1596
     18 C          60.9517   86.7415   10.3117 C.3     1  UNL1        0.0527
     19 C          61.2899   88.1974   10.4384 C.ar    1  UNL1        0.0661
     20 C          60.3127   89.3138   10.6587 C.ar    1  UNL1        0.0513
     21 S          61.0837   90.5988   10.7235 S.2     1  UNL1       -0.0687
     22 C          62.5375   90.2767   10.5432 C.ar    1  UNL1        0.1108
     23 N          62.6650   88.7926   10.3670 N.ar    1  UNL1       -0.2450
@<TRIPOS>BOND
     1    18    19    1
     2    19    20   ar
     3    20    21   ar
     4    21    22   ar
     5    22    17    1
     6    17     1    1
     7     1     2   ar
     8     2    10    1
     9    10    11    1
    10    11    12    1
    11    12    13    1
    12    13    14    1
    13    14    15    1
    14    14    16    1
    15     2     3   ar
    16     3     4   ar
    17     4     5   ar
    18     5     6   ar
    19     6     7   ar
    20     7     8   ar
    21     8     9   ar
    22    22    23   ar
    23    23    19   ar
    24     9     1   ar
    25    16    10    1
    26     9     4   ar
@<TRIPOS>MOLECULE
*****
 23 26 0 0 0
SMALL
GASTEIGER

@<TRIPOS>ATOM
      1 N          63.1244   84.3565   13.1748 N.ar    1  UNL1       -0.3085
      2 C          62.9516   84.4256   14.6632 C.ar    1  UNL1        0.1215
      3 N          62.7007   83.0347   15.1657 N.ar    1  UNL1       -0.2309
      4 C          62.7186   82.1060   13.9879 C.ar    1  UNL1        0.0983
      5 C          62.5302   80.6221   13.8768 C.ar    1  UNL1        0.0206
      6 C          62.6037   79.9551   12.5353 C.ar    1  UNL1        0.0016
      7 C          62.8656   80.7720   11.3049 C.ar    1  UNL1        0.0016
      8 C          63.0540   82.2560   11.4159 C.ar    1  UNL1        0.0188
      9 C          62.9805   82.9230   12.7574 C.ar    1  UNL1        0.0789
     10 C          63.0179   85.6675   15.5019 C.3     1  UNL1        0.0729
     11 C          62.5435   85.6379   16.9245 C.3     1  UNL1        0.0103
     12 C          62.6098   86.8798   17.7632 C.3     1  UNL1        0.0178
     13 C          63.1505   88.1512   17.1792 C.3     1  UNL1        0.0722
     14 N          63.6249   88.1807   15.7565 N.3     1  UNL1       -0.2711
     15 C          64.1657   89.4522   15.1724 C.3     1  UNL1        0.0896
     16 C          63.5586   86.9389   14.9179 C.3     1  UNL1        0.0796
     17 C          63.3940   85.5172   12.2637 C.3     1  UNL1        0.1596
     18 C          60.7091   85.8796    7.7316 C.3     1  UNL1        0.0527
     19 C          61.1424   86.0830    9.1532 C.ar    1  UNL1        0.0661
     20 C          60.4795   86.9783   10.1576 C.ar    1  UNL1        0.0513
     21 S          61.2422   86.8753   11.4450 S.2     1  UNL1       -0.0687
     22 C          62.3766   85.9164   11.2364 C.ar    1  UNL1        0.1108
     23 N          62.3150   85.4267    9.8199 N.ar    1  UNL1       -0.2450
@<TRIPOS>BOND
     1    18    19    1
     2    19    20   ar
     3    20    21   ar
     4    21    22   ar
     5    22    17    1
     6    17     1    1
     7     1     2   ar
     8     2    10    1
     9    10    11    1
    10    11    12    1
    11    12    13    1
    12    13    14    1
    13    14    15    1
    14    14    16    1
    15     2     3   ar
    16     3     4   ar
    17     4     5   ar
    18     5     6   ar
    19     6     7   ar
    20     7     8   ar
    21     8     9   ar
    22    22    23   ar
    23    23    19   ar
    24     9     1   ar
    25    16    10    1
    26     9     4   ar
@<TRIPOS>MOLECULE
*****
 23 26 0 0 0
SMALL
GASTEIGER

@<TRIPOS>ATOM
      1 N          63.3797   87.2698   12.9187 N.ar    1  UNL1       -0.3085
      2 C          63.8979   87.6420   14.2762 C.ar    1  UNL1        0.1215
      3 N          64.2181   86.3754   15.0133 N.ar    1  UNL1       -0.2309
      4 C          63.8977   85.2205   14.1113 C.ar    1  UNL1        0.0983
      5 C          64.0109   83.7369   14.3015 C.ar    1  UNL1        0.0206
      6 C          63.6058   82.8062   13.1972 C.ar    1  UNL1        0.0016
      7 C          63.0876   83.3590   11.9026 C.ar    1  UNL1        0.0016
      8 C          62.9744   84.8425   11.7124 C.ar    1  UNL1        0.0188
      9 C          63.3795   85.7733   12.8167 C.ar    1  UNL1        0.0789
     10 C          64.0665   89.0359   14.8040 C.3     1  UNL1        0.0729
     11 C          63.3955   89.4397   16.0833 C.3     1  UNL1        0.0103
     12 C          63.5640   90.8336   16.6110 C.3     1  UNL1        0.0178
     13 C          64.4035   91.8238   15.8595 C.3     1  UNL1        0.0722
     14 N          65.0745   91.4199   14.5802 N.3     1  UNL1       -0.2711
     15 C          65.9141   92.4101   13.8286 C.3     1  UNL1        0.0896
     16 C          64.9060   90.0260   14.0525 C.3     1  UNL1        0.0796
     17 C          62.9389   88.2263   11.8506 C.3     1  UNL1        0.1596
     18 C          60.5054   86.1111    7.6691 C.3     1  UNL1        0.0527
     19 C          60.7575   86.8486    8.9507 C.ar    1  UNL1        0.0661
     20 C          59.7240   87.5453    9.7852 C.ar    1  UNL1        0.0513
     21 S          60.4153   88.1462   10.9730 S.2     1  UNL1       -0.0687
     22 C          61.8762   87.8209   10.8728 C.ar    1  UNL1        0.1108
     23 N          62.0877   87.0189    9.6229 N.ar    1  UNL1       -0.2450
@<TRIPOS>BOND
     1    18    19    1
     2    19    20   ar
     3    20    21   ar
     4    21    22   ar
     5    22    17    1
     6    17     1    1
     7     1     2   ar
     8     2    10    1
     9    10    11    1
    10    11    12    1
    11    12    13    1
    12    13    14    1
    13    14    15    1
    14    14    16    1
    15     2     3   ar
    16     3     4   ar
    17     4     5   ar
    18     5     6   ar
    19     6     7   ar
    20     7     8   ar
    21     8     9   ar
    22    22    23   ar
    23    23    19   ar
    24     9     1   ar
    25    16    10    1
    26     9     4   ar
