@<TRIPOS>MOLECULE
*****
 29 32 0 0 0
SMALL
GASTEIGER

@<TRIPOS>ATOM
      1 C          63.8574   90.8588   12.5133 C.ar    1  UNL1        0.0926
      2 C          64.9105   91.8481   12.1107 C.ar    1  UNL1        0.0467
      3 C          65.7042   92.5676   13.1605 C.ar    1  UNL1        0.1649
      4 C          65.4448   92.2978   14.6131 C.ar    1  UNL1        0.1395
      5 N          64.3917   91.3086   15.0158 N.ar    1  UNL1       -0.2060
      6 N          63.9163   90.8396   16.3589 N.ar    1  UNL1       -0.1408
      7 C          62.8287   89.8302   16.1391 C.ar    1  UNL1        0.2213
      8 N          62.6320   89.6753   14.6601 N.ar    1  UNL1       -0.2033
      9 C          63.5980   90.5890   13.9659 C.ar    1  UNL1        0.1702
     10 O          62.7676   90.8111   10.1553 O.2     1  UNL1       -0.2697
     11 C          63.0636   90.1393   11.4634 C.2     1  UNL1        0.2536
     12 N          62.5660   88.7480   11.7216 N.am    1  UNL1       -0.2657
     13 H          62.7603   88.3071   12.5801 H       1  UNL1        0.1566
     14 C          61.7722   88.0286   10.6716 C.ar    1  UNL1        0.1345
     15 C          62.3833   86.8797    9.9255 C.ar    1  UNL1        0.0368
     16 C          61.5897   86.1602    8.8755 C.ar    1  UNL1        0.0341
     17 C          60.1849   86.5896    8.5716 C.ar    1  UNL1        0.1593
     18 F          59.3913   85.8701    7.5217 F       1  UNL1       -0.2025
     19 C          59.5739   87.7385    9.3178 C.ar    1  UNL1        0.1298
     20 N          60.3675   88.4579   10.3677 N.ar    1  UNL1       -0.2267
     21 O          66.7574   93.5570   12.7578 O.3     1  UNL1       -0.4480
     22 C          66.9632   93.8853   11.3087 C.ar    1  UNL1        0.1939
     23 C          66.3491   95.1234   10.7257 C.ar    1  UNL1        0.1387
     24 N          66.5549   95.4518    9.2766 N.ar    1  UNL1       -0.2366
     25 C          67.3746   94.5419    8.4105 C.ar    1  UNL1        0.1310
     26 C          67.9887   93.3038    8.9935 C.ar    1  UNL1        0.1895
     27 F          68.8085   92.3939    8.1275 F       1  UNL1       -0.2000
     28 C          67.7830   92.9755   10.4426 C.ar    1  UNL1        0.2047
     29 F          68.3970   91.7373   11.0256 F       1  UNL1       -0.1984
@<TRIPOS>BOND
     1    10    11    2
     2    11    12   am
     3    12    14    1
     4    14    15   ar
     5    15    16   ar
     6    16    17   ar
     7    17    18    1
     8    17    19   ar
     9    19    20   ar
    10    11     1    1
    11     1     2   ar
    12     2     3   ar
    13     3    21    1
    14    21    22    1
    15    22    23   ar
    16    23    24   ar
    17    24    25   ar
    18    25    26   ar
    19    26    27    1
    20    26    28   ar
    21    28    29    1
    22     3     4   ar
    23     4     5   ar
    24     5     6   ar
    25     6     7   ar
    26     7     8   ar
    27     8     9   ar
    28    20    14   ar
    29     9     1   ar
    30    28    22   ar
    31     9     5   ar
    32    12    13    1
@<TRIPOS>MOLECULE
*****
 29 32 0 0 0
SMALL
GASTEIGER

@<TRIPOS>ATOM
      1 C          63.1697   88.3165   12.4823 C.ar    1  UNL1        0.0926
      2 C          63.7797   89.4750   13.2143 C.ar    1  UNL1        0.0467
      3 C          63.5734   90.8728   12.7110 C.ar    1  UNL1        0.1649
      4 C          62.7570   91.1123   11.4755 C.ar    1  UNL1        0.1395
      5 N          62.1469   89.9538   10.7436 N.ar    1  UNL1       -0.2060
      6 N          61.2999   89.8812    9.5078 N.ar    1  UNL1       -0.1408
      7 C          60.9827   88.4384    9.2474 C.ar    1  UNL1        0.2213
      8 N          61.6337   87.6194   10.3222 N.ar    1  UNL1       -0.2033
      9 C          62.3533   88.5559   11.2470 C.ar    1  UNL1        0.1702
     10 O          64.1498   86.6830   14.2491 O.2     1  UNL1       -0.2697
     11 C          63.3760   86.9187   12.9857 C.2     1  UNL1        0.2536
     12 N          62.8087   85.7565   12.2259 N.am    1  UNL1       -0.2657
     13 H          62.3008   85.9111   11.3968 H       1  UNL1        0.1566
     14 C          63.0151   84.3586   12.7294 C.ar    1  UNL1        0.1345
     15 C          63.8879   83.4076   11.9654 C.ar    1  UNL1        0.0368
     16 C          64.0943   82.0097   12.4688 C.ar    1  UNL1        0.0341
     17 C          63.4280   81.5629   13.7362 C.ar    1  UNL1        0.1593
     18 F          63.6344   80.1651   14.2395 F       1  UNL1       -0.2025
     19 C          62.5551   82.5140   14.5001 C.ar    1  UNL1        0.1298
     20 N          62.3487   83.9118   13.9968 N.ar    1  UNL1       -0.2267
     21 O          64.1835   92.0313   13.4430 O.3     1  UNL1       -0.4480
     22 C          65.6584   92.0535   13.7155 C.ar    1  UNL1        0.1939
     23 C          66.6319   92.0668   12.5744 C.ar    1  UNL1        0.1387
     24 N          68.1067   92.0890   12.8470 N.ar    1  UNL1       -0.2366
     25 C          68.6081   92.0978   14.2606 C.ar    1  UNL1        0.1310
     26 C          67.6347   92.0845   15.4018 C.ar    1  UNL1        0.1895
     27 F          68.1360   92.0934   16.8155 F       1  UNL1       -0.2000
     28 C          66.1598   92.0623   15.1292 C.ar    1  UNL1        0.2047
     29 F          65.1863   92.0490   16.2703 F       1  UNL1       -0.1984
@<TRIPOS>BOND
     1    10    11    2
     2    11    12   am
     3    12    14    1
     4    14    15   ar
     5    15    16   ar
     6    16    17   ar
     7    17    18    1
     8    17    19   ar
     9    19    20   ar
    10    11     1    1
    11     1     2   ar
    12     2     3   ar
    13     3    21    1
    14    21    22    1
    15    22    23   ar
    16    23    24   ar
    17    24    25   ar
    18    25    26   ar
    19    26    27    1
    20    26    28   ar
    21    28    29    1
    22     3     4   ar
    23     4     5   ar
    24     5     6   ar
    25     6     7   ar
    26     7     8   ar
    27     8     9   ar
    28    20    14   ar
    29     9     1   ar
    30    28    22   ar
    31     9     5   ar
    32    12    13    1
@<TRIPOS>MOLECULE
*****
 29 32 0 0 0
SMALL
GASTEIGER

@<TRIPOS>ATOM
      1 C          62.1511   87.6103   11.0841 C.ar    1  UNL1        0.0926
      2 C          62.7745   88.6791   11.9319 C.ar    1  UNL1        0.0467
      3 C          62.5144   90.1247   11.6279 C.ar    1  UNL1        0.1649
      4 C          61.6306   90.5015   10.4758 C.ar    1  UNL1        0.1395
      5 N          61.0072   89.4327    9.6280 N.ar    1  UNL1       -0.2060
      6 N          60.0992   89.4995    8.4359 N.ar    1  UNL1       -0.1408
      7 C          59.7982   88.0951    8.0033 C.ar    1  UNL1        0.2213
      8 N          60.5202   87.1604    8.9280 N.ar    1  UNL1       -0.2033
      9 C          61.2674   87.9871    9.9321 C.ar    1  UNL1        0.1702
     10 O          62.3522   85.1447   10.2898 O.2     1  UNL1       -0.2697
     11 C          62.4113   86.1647   11.3882 C.2     1  UNL1        0.2536
     12 N          62.7307   85.7390   12.7906 N.am    1  UNL1       -0.2657
     13 H          62.7695   86.4084   13.5115 H       1  UNL1        0.1566
     14 C          62.9909   84.2933   13.0947 C.ar    1  UNL1        0.1345
     15 C          64.0956   83.5654   12.3877 C.ar    1  UNL1        0.0368
     16 C          64.3558   82.1197   12.6917 C.ar    1  UNL1        0.0341
     17 C          63.5114   81.4020   13.7026 C.ar    1  UNL1        0.1593
     18 F          63.7717   79.9565   14.0066 F       1  UNL1       -0.2025
     19 C          62.4067   82.1301   14.4095 C.ar    1  UNL1        0.1298
     20 N          62.1465   83.5756   14.1055 N.ar    1  UNL1       -0.2267
     21 O          63.1379   91.1935   12.4758 O.3     1  UNL1       -0.4480
     22 C          64.5252   91.6769   12.1731 C.ar    1  UNL1        0.1939
     23 C          64.8481   92.2276   10.8157 C.ar    1  UNL1        0.1387
     24 N          66.2354   92.7110   10.5130 N.ar    1  UNL1       -0.2366
     25 C          67.2999   92.6437   11.5677 C.ar    1  UNL1        0.1310
     26 C          66.9771   92.0929   12.9250 C.ar    1  UNL1        0.1895
     27 F          68.0415   92.0255   13.9798 F       1  UNL1       -0.2000
     28 C          65.5897   91.6096   13.2277 C.ar    1  UNL1        0.2047
     29 F          65.2668   91.0588   14.5851 F       1  UNL1       -0.1984
@<TRIPOS>BOND
     1    10    11    2
     2    11    12   am
     3    12    14    1
     4    14    15   ar
     5    15    16   ar
     6    16    17   ar
     7    17    18    1
     8    17    19   ar
     9    19    20   ar
    10    11     1    1
    11     1     2   ar
    12     2     3   ar
    13     3    21    1
    14    21    22    1
    15    22    23   ar
    16    23    24   ar
    17    24    25   ar
    18    25    26   ar
    19    26    27    1
    20    26    28   ar
    21    28    29    1
    22     3     4   ar
    23     4     5   ar
    24     5     6   ar
    25     6     7   ar
    26     7     8   ar
    27     8     9   ar
    28    20    14   ar
    29     9     1   ar
    30    28    22   ar
    31     9     5   ar
    32    12    13    1
@<TRIPOS>MOLECULE
*****
 29 32 0 0 0
SMALL
GASTEIGER

@<TRIPOS>ATOM
      1 C          62.9525   88.2759   12.2479 C.ar    1  UNL1        0.0926
      2 C          63.2244   86.8153   12.0407 C.ar    1  UNL1        0.0467
      3 C          62.3315   86.0056   11.1480 C.ar    1  UNL1        0.1649
      4 C          61.1667   86.6563   10.4625 C.ar    1  UNL1        0.1395
      5 N          60.8949   88.1168   10.6697 N.ar    1  UNL1       -0.2060
      6 N          59.8302   89.0258   10.1312 N.ar    1  UNL1       -0.1408
      7 C          60.0650   90.3974   10.6911 C.ar    1  UNL1        0.2213
      8 N          61.2749   90.3361   11.5756 N.ar    1  UNL1       -0.2033
      9 C          61.7878   88.9266   11.5624 C.ar    1  UNL1        0.1702
     10 O          64.4518   88.4601   14.3618 O.2     1  UNL1       -0.2697
     11 C          63.8455   89.0857   13.1407 C.2     1  UNL1        0.2536
     12 N          64.1321   90.5209   12.8123 N.am    1  UNL1       -0.2657
     13 H          63.7341   90.9315   12.0108 H       1  UNL1        0.1566
     14 C          65.0250   91.3307   13.7051 C.ar    1  UNL1        0.1345
     15 C          66.3156   91.8814   13.1748 C.ar    1  UNL1        0.0368
     16 C          67.2085   92.6911   14.0675 C.ar    1  UNL1        0.0341
     17 C          66.8110   92.9501   15.4905 C.ar    1  UNL1        0.1593
     18 F          67.7039   93.7598   16.3832 F       1  UNL1       -0.2025
     19 C          65.5203   92.3993   16.0207 C.ar    1  UNL1        0.1298
     20 N          64.6274   91.5897   15.1280 N.ar    1  UNL1       -0.2267
     21 O          62.6034   84.5450   10.9408 O.3     1  UNL1       -0.4480
     22 C          62.5323   83.5969   12.1010 C.ar    1  UNL1        0.1939
     23 C          62.3551   84.1270   13.4930 C.ar    1  UNL1        0.1387
     24 N          62.2841   83.1789   14.6532 N.ar    1  UNL1       -0.2366
     25 C          62.3902   81.7007   14.4215 C.ar    1  UNL1        0.1310
     26 C          62.5674   81.1706   13.0295 C.ar    1  UNL1        0.1895
     27 F          62.6735   79.6924   12.7976 F       1  UNL1       -0.2000
     28 C          62.6385   82.1187   11.8693 C.ar    1  UNL1        0.2047
     29 F          62.8156   81.5886   10.4773 F       1  UNL1       -0.1984
@<TRIPOS>BOND
     1    10    11    2
     2    11    12   am
     3    12    14    1
     4    14    15   ar
     5    15    16   ar
     6    16    17   ar
     7    17    18    1
     8    17    19   ar
     9    19    20   ar
    10    11     1    1
    11     1     2   ar
    12     2     3   ar
    13     3    21    1
    14    21    22    1
    15    22    23   ar
    16    23    24   ar
    17    24    25   ar
    18    25    26   ar
    19    26    27    1
    20    26    28   ar
    21    28    29    1
    22     3     4   ar
    23     4     5   ar
    24     5     6   ar
    25     6     7   ar
    26     7     8   ar
    27     8     9   ar
    28    20    14   ar
    29     9     1   ar
    30    28    22   ar
    31     9     5   ar
    32    12    13    1
@<TRIPOS>MOLECULE
*****
 29 32 0 0 0
SMALL
GASTEIGER

@<TRIPOS>ATOM
      1 C          63.0445   84.5244   11.6439 C.ar    1  UNL1        0.0926
      2 C          63.6307   85.2338   12.8284 C.ar    1  UNL1        0.0467
      3 C          64.2430   84.4449   13.9476 C.ar    1  UNL1        0.1649
      4 C          64.2691   82.9465   13.8824 C.ar    1  UNL1        0.1395
      5 N          63.6829   82.2371   12.6978 N.ar    1  UNL1       -0.2060
      6 N          63.5646   80.7810   12.3575 N.ar    1  UNL1       -0.1408
      7 C          62.8792   80.6701   11.0279 C.ar    1  UNL1        0.2213
      8 N          62.5739   82.0575   10.5465 N.ar    1  UNL1       -0.2033
      9 C          63.0706   83.0260   11.5786 C.ar    1  UNL1        0.1702
     10 O          62.9853   85.1972    9.1351 O.2     1  UNL1       -0.2697
     11 C          62.4322   85.3133   10.5246 C.2     1  UNL1        0.2536
     12 N          61.2669   86.2183   10.7949 N.am    1  UNL1       -0.2657
     13 H          60.9040   86.2945   11.7069 H       1  UNL1        0.1566
     14 C          60.6547   87.0072    9.6756 C.ar    1  UNL1        0.1345
     15 C          59.9656   86.2981    8.5476 C.ar    1  UNL1        0.0368
     16 C          59.3534   87.0869    7.4283 C.ar    1  UNL1        0.0341
     17 C          59.4302   88.5849    7.4369 C.ar    1  UNL1        0.1593
     18 F          58.8180   89.3737    6.3176 F       1  UNL1       -0.2025
     19 C          60.1193   89.2940    8.5649 C.ar    1  UNL1        0.1298
     20 N          60.7315   88.5052    9.6842 N.ar    1  UNL1       -0.2267
     21 O          64.8292   85.1544   15.1322 O.3     1  UNL1       -0.4480
     22 C          63.9621   86.0319   15.9855 C.ar    1  UNL1        0.1939
     23 C          63.0691   85.4212   17.0245 C.ar    1  UNL1        0.1387
     24 N          62.2020   86.2988   17.8778 N.ar    1  UNL1       -0.2366
     25 C          62.2279   87.7870   17.6920 C.ar    1  UNL1        0.1310
     26 C          63.1209   88.3976   16.6530 C.ar    1  UNL1        0.1895
     27 F          63.1468   89.8859   16.4671 F       1  UNL1       -0.2000
     28 C          63.9880   87.5201   15.7997 C.ar    1  UNL1        0.2047
     29 F          64.8810   88.1308   14.7606 F       1  UNL1       -0.1984
@<TRIPOS>BOND
     1    10    11    2
     2    11    12   am
     3    12    14    1
     4    14    15   ar
     5    15    16   ar
     6    16    17   ar
     7    17    18    1
     8    17    19   ar
     9    19    20   ar
    10    11     1    1
    11     1     2   ar
    12     2     3   ar
    13     3    21    1
    14    21    22    1
    15    22    23   ar
    16    23    24   ar
    17    24    25   ar
    18    25    26   ar
    19    26    27    1
    20    26    28   ar
    21    28    29    1
    22     3     4   ar
    23     4     5   ar
    24     5     6   ar
    25     6     7   ar
    26     7     8   ar
    27     8     9   ar
    28    20    14   ar
    29     9     1   ar
    30    28    22   ar
    31     9     5   ar
    32    12    13    1
@<TRIPOS>MOLECULE
*****
 29 32 0 0 0
SMALL
GASTEIGER

@<TRIPOS>ATOM
      1 C          63.1606   87.9593   12.6043 C.ar    1  UNL1        0.0926
      2 C          63.1893   89.4041   13.0062 C.ar    1  UNL1        0.0467
      3 C          63.6000   89.7877   14.3969 C.ar    1  UNL1        0.1649
      4 C          63.9821   88.7264   15.3858 C.ar    1  UNL1        0.1395
      5 N          63.9534   87.2815   14.9838 N.ar    1  UNL1       -0.2060
      6 N          64.2743   86.0240   15.7358 N.ar    1  UNL1       -0.1408
      7 C          64.0619   84.8632   14.8098 C.ar    1  UNL1        0.2213
      8 N          63.6097   85.4033   13.4855 N.ar    1  UNL1       -0.2033
      9 C          63.5427   86.8980   13.5930 C.ar    1  UNL1        0.1702
     10 O          62.5114   88.6384   10.1819 O.2     1  UNL1       -0.2697
     11 C          62.7499   87.5757   11.2135 C.2     1  UNL1        0.2536
     12 N          62.5776   86.1296   10.8543 N.am    1  UNL1       -0.2657
     13 H          62.7340   85.4322   11.5313 H       1  UNL1        0.1566
     14 C          62.1668   85.7461    9.4635 C.ar    1  UNL1        0.1345
     15 C          63.1336   85.0322    8.5660 C.ar    1  UNL1        0.0368
     16 C          62.7230   84.6487    7.1752 C.ar    1  UNL1        0.0341
     17 C          61.3455   84.9791    6.6819 C.ar    1  UNL1        0.1593
     18 F          60.9348   84.5957    5.2912 F       1  UNL1       -0.2025
     19 C          60.3786   85.6930    7.5795 C.ar    1  UNL1        0.1298
     20 N          60.7893   86.0765    8.9702 N.ar    1  UNL1       -0.2267
     21 O          63.6288   91.2326   14.7989 O.3     1  UNL1       -0.4480
     22 C          64.9149   92.0023   14.7391 C.ar    1  UNL1        0.1939
     23 C          65.6876   92.2703   15.9965 C.ar    1  UNL1        0.1387
     24 N          66.9737   93.0400   15.9368 N.ar    1  UNL1       -0.2366
     25 C          67.4871   93.5416   14.6197 C.ar    1  UNL1        0.1310
     26 C          66.7143   93.2736   13.3623 C.ar    1  UNL1        0.1895
     27 F          67.2276   93.7752   12.0451 F       1  UNL1       -0.2000
     28 C          65.4282   92.5039   13.4220 C.ar    1  UNL1        0.2047
     29 F          64.6555   92.2359   12.1646 F       1  UNL1       -0.1984
@<TRIPOS>BOND
     1    10    11    2
     2    11    12   am
     3    12    14    1
     4    14    15   ar
     5    15    16   ar
     6    16    17   ar
     7    17    18    1
     8    17    19   ar
     9    19    20   ar
    10    11     1    1
    11     1     2   ar
    12     2     3   ar
    13     3    21    1
    14    21    22    1
    15    22    23   ar
    16    23    24   ar
    17    24    25   ar
    18    25    26   ar
    19    26    27    1
    20    26    28   ar
    21    28    29    1
    22     3     4   ar
    23     4     5   ar
    24     5     6   ar
    25     6     7   ar
    26     7     8   ar
    27     8     9   ar
    28    20    14   ar
    29     9     1   ar
    30    28    22   ar
    31     9     5   ar
    32    12    13    1
@<TRIPOS>MOLECULE
*****
 29 32 0 0 0
SMALL
GASTEIGER

@<TRIPOS>ATOM
      1 C          62.4015   87.7382   11.7866 C.ar    1  UNL1        0.0926
      2 C          63.4789   88.3443   12.6363 C.ar    1  UNL1        0.0467
      3 C          63.5825   89.8350   12.7655 C.ar    1  UNL1        0.1649
      4 C          62.6088   90.7199   12.0450 C.ar    1  UNL1        0.1395
      5 N          61.5315   90.1138   11.1953 N.ar    1  UNL1       -0.2060
      6 N          60.4373   90.7276   10.3731 N.ar    1  UNL1       -0.1408
      7 C          59.6574   89.6160    9.7358 C.ar    1  UNL1        0.2213
      8 N          60.2695   88.3153   10.1641 N.ar    1  UNL1       -0.2033
      9 C          61.4278   88.6229   11.0662 C.ar    1  UNL1        0.1702
     10 O          61.4456   85.6454   10.5797 O.2     1  UNL1       -0.2697
     11 C          62.2978   86.2474   11.6575 C.2     1  UNL1        0.2536
     12 N          63.0463   85.3585   12.6060 N.am    1  UNL1       -0.2657
     13 H          63.6056   85.7536   13.3133 H       1  UNL1        0.1566
     14 C          62.9426   83.8676   12.4767 C.ar    1  UNL1        0.1345
     15 C          63.4315   83.1869   11.2327 C.ar    1  UNL1        0.0368
     16 C          63.3278   81.6961   11.1034 C.ar    1  UNL1        0.0341
     17 C          62.7352   80.8860   12.2180 C.ar    1  UNL1        0.1593
     18 F          62.6315   79.3953   12.0887 F       1  UNL1       -0.2025
     19 C          62.2462   81.5668   13.4621 C.ar    1  UNL1        0.1298
     20 N          62.3499   83.0575   13.5914 N.ar    1  UNL1       -0.2267
     21 O          64.6600   90.4411   13.6152 O.3     1  UNL1       -0.4480
     22 C          65.2316   91.7813   13.2585 C.ar    1  UNL1        0.1939
     23 C          65.7485   92.6871   14.3366 C.ar    1  UNL1        0.1387
     24 N          66.3201   94.0273   13.9799 N.ar    1  UNL1       -0.2366
     25 C          66.3748   94.4616   12.5452 C.ar    1  UNL1        0.1310
     26 C          65.8578   93.5558   11.4672 C.ar    1  UNL1        0.1895
     27 F          65.9124   93.9900   10.0324 F       1  UNL1       -0.2000
     28 C          65.2862   92.2156   11.8238 C.ar    1  UNL1        0.2047
     29 F          64.7693   91.3097   10.7458 F       1  UNL1       -0.1984
@<TRIPOS>BOND
     1    10    11    2
     2    11    12   am
     3    12    14    1
     4    14    15   ar
     5    15    16   ar
     6    16    17   ar
     7    17    18    1
     8    17    19   ar
     9    19    20   ar
    10    11     1    1
    11     1     2   ar
    12     2     3   ar
    13     3    21    1
    14    21    22    1
    15    22    23   ar
    16    23    24   ar
    17    24    25   ar
    18    25    26   ar
    19    26    27    1
    20    26    28   ar
    21    28    29    1
    22     3     4   ar
    23     4     5   ar
    24     5     6   ar
    25     6     7   ar
    26     7     8   ar
    27     8     9   ar
    28    20    14   ar
    29     9     1   ar
    30    28    22   ar
    31     9     5   ar
    32    12    13    1
@<TRIPOS>MOLECULE
*****
 29 32 0 0 0
SMALL
GASTEIGER

@<TRIPOS>ATOM
      1 C          63.4303   88.8757   12.7276 C.ar    1  UNL1        0.0926
      2 C          64.5135   89.8848   12.9693 C.ar    1  UNL1        0.0467
      3 C          64.3374   91.2999   12.5045 C.ar    1  UNL1        0.1649
      4 C          63.0780   91.7062   11.7980 C.ar    1  UNL1        0.1395
      5 N          61.9948   90.6971   11.5564 N.ar    1  UNL1       -0.2060
      6 N          60.6541   90.8034   10.8921 N.ar    1  UNL1       -0.1408
      7 C          60.0017   89.4538   10.9464 C.ar    1  UNL1        0.2213
      8 N          60.9391   88.5134   11.6442 N.ar    1  UNL1       -0.2033
      9 C          62.1710   89.2818   12.0212 C.ar    1  UNL1        0.1702
     10 O          64.3028   87.1786   14.4909 O.2     1  UNL1       -0.2697
     11 C          63.6065   87.4604   13.1925 C.2     1  UNL1        0.2536
     12 N          63.0864   86.3270   12.3589 N.am    1  UNL1       -0.2657
     13 H          62.6294   86.5119   11.5067 H       1  UNL1        0.1566
     14 C          63.2626   84.9117   12.8238 C.ar    1  UNL1        0.1345
     15 C          63.0170   84.5583   14.2608 C.ar    1  UNL1        0.0368
     16 C          63.1932   83.1432   14.7257 C.ar    1  UNL1        0.0341
     17 C          63.6150   82.0814   13.7538 C.ar    1  UNL1        0.1593
     18 F          63.7911   80.6663   14.2187 F       1  UNL1       -0.2025
     19 C          63.8606   82.4349   12.3168 C.ar    1  UNL1        0.1298
     20 N          63.6844   83.8500   11.8519 N.ar    1  UNL1       -0.2267
     21 O          65.4206   92.3091   12.7461 O.3     1  UNL1       -0.4480
     22 C          66.1244   92.9466   11.5849 C.ar    1  UNL1        0.1939
     23 C          65.5210   94.1402   10.9058 C.ar    1  UNL1        0.1387
     24 N          66.2247   94.7777    9.7446 N.ar    1  UNL1       -0.2366
     25 C          67.5318   94.2217    9.2625 C.ar    1  UNL1        0.1310
     26 C          68.1351   93.0280    9.9417 C.ar    1  UNL1        0.1895
     27 F          69.4422   92.4718    9.4597 F       1  UNL1       -0.2000
     28 C          67.4314   92.3905   11.1029 C.ar    1  UNL1        0.2047
     29 F          68.0347   91.1969   11.7821 F       1  UNL1       -0.1984
@<TRIPOS>BOND
     1    10    11    2
     2    11    12   am
     3    12    14    1
     4    14    15   ar
     5    15    16   ar
     6    16    17   ar
     7    17    18    1
     8    17    19   ar
     9    19    20   ar
    10    11     1    1
    11     1     2   ar
    12     2     3   ar
    13     3    21    1
    14    21    22    1
    15    22    23   ar
    16    23    24   ar
    17    24    25   ar
    18    25    26   ar
    19    26    27    1
    20    26    28   ar
    21    28    29    1
    22     3     4   ar
    23     4     5   ar
    24     5     6   ar
    25     6     7   ar
    26     7     8   ar
    27     8     9   ar
    28    20    14   ar
    29     9     1   ar
    30    28    22   ar
    31     9     5   ar
    32    12    13    1
@<TRIPOS>MOLECULE
*****
 29 32 0 0 0
SMALL
GASTEIGER

@<TRIPOS>ATOM
      1 C          62.7344   84.9563   12.0936 C.ar    1  UNL1        0.0926
      2 C          63.1300   85.8316   13.2457 C.ar    1  UNL1        0.0467
      3 C          63.7055   85.2206   14.4887 C.ar    1  UNL1        0.1649
      4 C          63.8855   83.7342   14.5798 C.ar    1  UNL1        0.1395
      5 N          63.4899   82.8589   13.4278 N.ar    1  UNL1       -0.2060
      6 N          63.5494   81.3732   13.2294 N.ar    1  UNL1       -0.1408
      7 C          63.0106   81.0661   11.8636 C.ar    1  UNL1        0.2213
      8 N          62.6181   82.3619   11.2179 N.ar    1  UNL1       -0.2033
      9 C          62.9144   83.4699   12.1846 C.ar    1  UNL1        0.1702
     10 O          62.6628   85.1420    9.5031 O.2     1  UNL1       -0.2697
     11 C          62.1589   85.5673   10.8504 C.2     1  UNL1        0.2536
     12 N          61.0794   86.6036   10.9546 N.am    1  UNL1       -0.2657
     13 H          60.7487   86.8828   11.8389 H       1  UNL1        0.1566
     14 C          60.5039   87.2146    9.7114 C.ar    1  UNL1        0.1345
     15 C          60.6025   88.6946    9.4883 C.ar    1  UNL1        0.0368
     16 C          60.0270   89.3057    8.2452 C.ar    1  UNL1        0.0341
     17 C          59.3530   88.4368    7.2251 C.ar    1  UNL1        0.1593
     18 F          58.7775   89.0478    5.9820 F       1  UNL1       -0.2025
     19 C          59.2544   86.9567    7.4482 C.ar    1  UNL1        0.1298
     20 N          59.8299   86.3457    8.6913 N.ar    1  UNL1       -0.2267
     21 O          64.1011   86.0960   15.6409 O.3     1  UNL1       -0.4480
     22 C          64.0750   87.5884   15.4924 C.ar    1  UNL1        0.1939
     23 C          64.6742   88.2319   14.2771 C.ar    1  UNL1        0.1387
     24 N          64.6480   89.7243   14.1287 N.ar    1  UNL1       -0.2366
     25 C          64.0226   90.5733   15.1955 C.ar    1  UNL1        0.1310
     26 C          63.4233   89.9298   16.4107 C.ar    1  UNL1        0.1895
     27 F          62.7978   90.7787   17.4776 F       1  UNL1       -0.2000
     28 C          63.4495   88.4374   16.5592 C.ar    1  UNL1        0.2047
     29 F          62.8503   87.7939   17.7744 F       1  UNL1       -0.1984
@<TRIPOS>BOND
     1    10    11    2
     2    11    12   am
     3    12    14    1
     4    14    15   ar
     5    15    16   ar
     6    16    17   ar
     7    17    18    1
     8    17    19   ar
     9    19    20   ar
    10    11     1    1
    11     1     2   ar
    12     2     3   ar
    13     3    21    1
    14    21    22    1
    15    22    23   ar
    16    23    24   ar
    17    24    25   ar
    18    25    26   ar
    19    26    27    1
    20    26    28   ar
    21    28    29    1
    22     3     4   ar
    23     4     5   ar
    24     5     6   ar
    25     6     7   ar
    26     7     8   ar
    27     8     9   ar
    28    20    14   ar
    29     9     1   ar
    30    28    22   ar
    31     9     5   ar
    32    12    13    1
