@<TRIPOS>MOLECULE
*****
 39 43 0 0 0
SMALL
GASTEIGER

@<TRIPOS>ATOM
      1 C          58.9856   86.6824    7.2598 C.3     1  UNL1        0.1332
      2 N          59.6746   87.7715    8.0274 N.ar    1  UNL1       -0.2975
      3 C          59.5512   89.2443    7.7715 C.ar    1  UNL1        0.2017
      4 N          60.4082   89.9620    8.7717 N.ar    1  UNL1       -0.2134
      5 C          61.0613   88.9327    9.6458 C.ar    1  UNL1        0.1030
      6 C          62.0102   89.0533   10.8012 C.ar    1  UNL1        0.0581
      7 C          62.5058   87.8202   11.4965 C.ar    1  UNL1        0.1469
      8 C          62.0524   86.4663   11.0366 C.ar    1  UNL1        0.0391
      9 C          61.1034   86.3457    9.8812 C.ar    1  UNL1        0.0219
     10 C          60.6079   87.5789    9.1858 C.ar    1  UNL1        0.0801
     11 N          58.7172   89.8867    6.7029 N.pl3   1  UNL1       -0.2839
     12 H          57.7376   89.7892    6.7178 H       1  UNL1        0.1550
     13 C          59.3756   90.6776    5.6116 C.ar    1  UNL1        0.0504
     14 C          58.5736   91.6566    4.8064 C.ar    1  UNL1        0.0144
     15 C          59.2320   92.4475    3.7151 C.ar    1  UNL1       -0.0030
     16 C          60.6924   92.2594    3.4290 C.ar    1  UNL1       -0.0227
     17 C          61.4944   91.2804    4.2342 C.ar    1  UNL1       -0.0030
     18 C          60.8360   90.4895    5.3255 C.ar    1  UNL1        0.0144
     19 C          61.3508   93.0503    2.3376 C.3     1  UNL1        0.0189
     20 C          62.6414   92.3302    2.5943 C.3     1  UNL1        0.0044
     21 C          60.0603   93.7705    2.0810 C.3     1  UNL1        0.0044
     22 C          62.0092   93.8413    1.2464 C.3     1  UNL1        0.0044
     23 O          63.4548   87.9407   12.6520 O.3     1  UNL1       -0.4533
     24 C          63.6805   86.7702   13.5624 C.ar    1  UNL1        0.1485
     25 C          64.1978   86.9905   14.9531 C.ar    1  UNL1        0.0582
     26 C          64.4235   85.8200   15.8635 C.ar    1  UNL1        0.1021
     27 N          64.1319   84.4292   15.3833 N.ar    1  UNL1       -0.2406
     28 C          63.6146   84.2089   13.9927 C.ar    1  UNL1        0.1181
     29 C          63.3889   85.3794   13.0823 C.ar    1  UNL1        0.0597
     30 C          63.3230   82.8180   13.5125 C.ar    1  UNL1        0.1585
     31 N          62.9544   81.6469   14.3742 N.ar    1  UNL1       -0.2240
     32 C          62.7524   80.4592   13.4805 C.ar    1  UNL1        0.1214
     33 C          62.9961   80.8964   12.0664 C.ar    1  UNL1        0.1493
     34 N          63.3488   82.3543   12.0862 N.ar    1  UNL1       -0.3329
     35 H          63.5601   82.9093   11.3010 H       1  UNL1        0.1674
     36 C          62.9035   80.0282   10.8467 C.3     1  UNL1        0.4344
     37 F          62.8108   79.1599    9.6271 F       1  UNL1       -0.1644
     38 F          63.2755   81.1985    9.9854 F       1  UNL1       -0.1644
     39 F          62.5315   78.8578   11.7081 F       1  UNL1       -0.1644
@<TRIPOS>BOND
     1     1     2    1
     2     2     3   ar
     3     3    11    1
     4    11    13    1
     5    13    14   ar
     6    14    15   ar
     7    15    16   ar
     8    16    19    1
     9    19    20    1
    10    19    21    1
    11    19    22    1
    12    16    17   ar
    13    17    18   ar
    14     3     4   ar
    15     4     5   ar
    16     5     6   ar
    17     6     7   ar
    18     7    23    1
    19    23    24    1
    20    24    25   ar
    21    25    26   ar
    22    26    27   ar
    23    27    28   ar
    24    28    30    1
    25    30    31   ar
    26    31    32   ar
    27    32    33   ar
    28    33    36    1
    29    36    37    1
    30    36    38    1
    31    36    39    1
    32    33    34   ar
    33    28    29   ar
    34     7     8   ar
    35     8     9   ar
    36     9    10   ar
    37    10     2   ar
    38    18    13   ar
    39    10     5   ar
    40    29    24   ar
    41    34    30   ar
    42    11    12    1
    43    34    35    1
@<TRIPOS>MOLECULE
*****
 39 43 0 0 0
SMALL
GASTEIGER

@<TRIPOS>ATOM
      1 C          59.3193   86.4209    7.4001 C.3     1  UNL1        0.1332
      2 N          59.8816   87.5204    8.2515 N.ar    1  UNL1       -0.2975
      3 C          59.6092   88.9867    8.0911 C.ar    1  UNL1        0.2017
      4 N          60.3742   89.7192    9.1533 N.ar    1  UNL1       -0.2134
      5 C          61.1194   88.7055    9.9702 C.ar    1  UNL1        0.1030
      6 C          62.0359   88.8444   11.1495 C.ar    1  UNL1        0.0581
      7 C          62.6478   87.6243   11.7715 C.ar    1  UNL1        0.1469
      8 C          62.3433   86.2654   11.2141 C.ar    1  UNL1        0.0391
      9 C          61.4269   86.1265   10.0348 C.ar    1  UNL1        0.0219
     10 C          60.8149   87.3466    9.4129 C.ar    1  UNL1        0.0801
     11 N          58.7267   89.6110    7.0511 N.pl3   1  UNL1       -0.2839
     12 H          57.7505   89.4931    7.0988 H       1  UNL1        0.1550
     13 C          59.3317   90.4148    5.9386 C.ar    1  UNL1        0.0504
     14 C          60.7759   90.2289    5.5783 C.ar    1  UNL1        0.0144
     15 C          61.3809   91.0327    4.4658 C.ar    1  UNL1       -0.0030
     16 C          60.5417   92.0225    3.7134 C.ar    1  UNL1       -0.0227
     17 C          59.0976   92.2084    4.0735 C.ar    1  UNL1       -0.0030
     18 C          58.4925   91.4046    5.1862 C.ar    1  UNL1        0.0144
     19 C          61.1468   92.8263    2.6008 C.3     1  UNL1        0.0189
     20 C          62.4924   92.2393    2.9084 C.3     1  UNL1        0.0044
     21 C          59.8011   93.4133    2.2931 C.3     1  UNL1        0.0044
     22 C          61.7517   93.6301    1.4882 C.3     1  UNL1        0.0044
     23 O          63.5643   87.7631   12.9508 O.3     1  UNL1       -0.4533
     24 C          63.8513   89.1201   13.5220 C.ar    1  UNL1        0.1485
     25 C          63.4813   89.4296   14.9424 C.ar    1  UNL1        0.0582
     26 C          63.7683   90.7866   15.5135 C.ar    1  UNL1        0.1021
     27 N          64.4253   91.8341   14.6643 N.ar    1  UNL1       -0.2406
     28 C          64.7953   91.5246   13.2440 C.ar    1  UNL1        0.1181
     29 C          64.5083   90.1676   12.6728 C.ar    1  UNL1        0.0597
     30 C          65.4524   92.5721   12.3948 C.ar    1  UNL1        0.1585
     31 N          65.7793   93.9733   12.8187 N.ar    1  UNL1       -0.2240
     32 C          66.4268   94.6694   11.6585 C.ar    1  UNL1        0.1214
     33 C          66.5001   93.6984   10.5175 C.ar    1  UNL1        0.1493
     34 N          65.8979   92.4021   10.9726 N.ar    1  UNL1       -0.3329
     35 H          65.8104   91.5835   10.4326 H       1  UNL1        0.1674
     36 C          67.0748   93.9751    9.1598 C.3     1  UNL1        0.4344
     37 F          67.6494   94.2517    7.8022 F       1  UNL1       -0.1644
     38 F          67.7346   92.6280    9.1646 F       1  UNL1       -0.1644
     39 F          66.4150   95.3221    9.1550 F       1  UNL1       -0.1644
@<TRIPOS>BOND
     1     1     2    1
     2     2     3   ar
     3     3    11    1
     4    11    13    1
     5    13    14   ar
     6    14    15   ar
     7    15    16   ar
     8    16    19    1
     9    19    20    1
    10    19    21    1
    11    19    22    1
    12    16    17   ar
    13    17    18   ar
    14     3     4   ar
    15     4     5   ar
    16     5     6   ar
    17     6     7   ar
    18     7    23    1
    19    23    24    1
    20    24    25   ar
    21    25    26   ar
    22    26    27   ar
    23    27    28   ar
    24    28    30    1
    25    30    31   ar
    26    31    32   ar
    27    32    33   ar
    28    33    36    1
    29    36    37    1
    30    36    38    1
    31    36    39    1
    32    33    34   ar
    33    28    29   ar
    34     7     8   ar
    35     8     9   ar
    36     9    10   ar
    37    10     2   ar
    38    18    13   ar
    39    10     5   ar
    40    29    24   ar
    41    34    30   ar
    42    11    12    1
    43    34    35    1
@<TRIPOS>MOLECULE
*****
 39 43 0 0 0
SMALL
GASTEIGER

@<TRIPOS>ATOM
      1 C          60.1527   94.2975    2.1729 C.3     1  UNL1        0.1332
      2 N          60.6992   93.1339    2.9458 N.ar    1  UNL1       -0.2975
      3 C          62.1155   92.6410    2.9135 C.ar    1  UNL1        0.2017
      4 N          62.2169   91.4614    3.8345 N.ar    1  UNL1       -0.2134
      5 C          60.8632   91.2253    4.4361 C.ar    1  UNL1        0.1030
      6 C          60.3636   90.2027    5.4131 C.ar    1  UNL1        0.0581
      7 C          58.9259   90.2137    5.8408 C.ar    1  UNL1        0.1469
      8 C          57.9879   91.2474    5.2915 C.ar    1  UNL1        0.0391
      9 C          58.4876   92.2700    4.3146 C.ar    1  UNL1        0.0219
     10 C          59.9252   92.2590    3.8869 C.ar    1  UNL1        0.0801
     11 N          63.2340   93.2251    2.1024 N.pl3   1  UNL1       -0.2839
     12 H          64.0622   93.5192    2.5461 H       1  UNL1        0.1550
     13 C          63.0907   93.3610    0.6155 C.ar    1  UNL1        0.0504
     14 C          64.1674   94.0338   -0.1833 C.ar    1  UNL1        0.0144
     15 C          64.0241   94.1698   -1.6703 C.ar    1  UNL1       -0.0030
     16 C          62.8042   93.6329   -2.3584 C.ar    1  UNL1       -0.0227
     17 C          61.7275   92.9601   -1.5596 C.ar    1  UNL1       -0.0030
     18 C          61.8708   92.8241   -0.0726 C.ar    1  UNL1        0.0144
     19 C          62.6609   93.7688   -3.8454 C.3     1  UNL1        0.0189
     20 C          63.7865   92.7972   -4.0427 C.3     1  UNL1        0.0044
     21 C          61.5354   94.7405   -3.6480 C.3     1  UNL1        0.0044
     22 C          62.5176   93.9048   -5.3323 C.3     1  UNL1        0.0044
     23 O          58.4262   89.1910    6.8178 O.3     1  UNL1       -0.4533
     24 C          59.3974   88.4385    7.6783 C.ar    1  UNL1        0.1485
     25 C          59.5299   86.9512    7.5356 C.ar    1  UNL1        0.0582
     26 C          60.5011   86.1987    8.3961 C.ar    1  UNL1        0.1021
     27 N          61.3398   86.9335    9.3994 N.ar    1  UNL1       -0.2406
     28 C          61.2073   88.4208    9.5421 C.ar    1  UNL1        0.1181
     29 C          60.2361   89.1733    8.6816 C.ar    1  UNL1        0.0597
     30 C          62.0461   89.1557   10.5455 C.ar    1  UNL1        0.1585
     31 N          62.6302   90.5263   10.3715 N.ar    1  UNL1       -0.2240
     32 C          63.3930   90.8666   11.6174 C.ar    1  UNL1        0.1214
     33 C          63.2804   89.7063   12.5614 C.ar    1  UNL1        0.1493
     34 N          62.4479   88.6488   11.8988 N.ar    1  UNL1       -0.3329
     35 H          62.2074   87.7755   12.2846 H       1  UNL1        0.1674
     36 C          63.8927   89.6188   13.9279 C.3     1  UNL1        0.4344
     37 F          64.5050   89.5313   15.2944 F       1  UNL1       -0.1644
     38 F          64.2256   88.1763   13.6864 F       1  UNL1       -0.1644
     39 F          63.5598   91.0613   14.1694 F       1  UNL1       -0.1644
@<TRIPOS>BOND
     1     1     2    1
     2     2     3   ar
     3     3    11    1
     4    11    13    1
     5    13    14   ar
     6    14    15   ar
     7    15    16   ar
     8    16    19    1
     9    19    20    1
    10    19    21    1
    11    19    22    1
    12    16    17   ar
    13    17    18   ar
    14     3     4   ar
    15     4     5   ar
    16     5     6   ar
    17     6     7   ar
    18     7    23    1
    19    23    24    1
    20    24    25   ar
    21    25    26   ar
    22    26    27   ar
    23    27    28   ar
    24    28    30    1
    25    30    31   ar
    26    31    32   ar
    27    32    33   ar
    28    33    36    1
    29    36    37    1
    30    36    38    1
    31    36    39    1
    32    33    34   ar
    33    28    29   ar
    34     7     8   ar
    35     8     9   ar
    36     9    10   ar
    37    10     2   ar
    38    18    13   ar
    39    10     5   ar
    40    29    24   ar
    41    34    30   ar
    42    11    12    1
    43    34    35    1
@<TRIPOS>MOLECULE
*****
 39 43 0 0 0
SMALL
GASTEIGER

@<TRIPOS>ATOM
      1 C          63.1003   89.5207   12.5077 C.3     1  UNL1        0.1332
      2 N          62.4454   88.5167   11.6060 N.ar    1  UNL1       -0.2975
      3 C          62.5356   87.0250   11.7348 C.ar    1  UNL1        0.2017
      4 N          61.7313   86.4145   10.6256 N.ar    1  UNL1       -0.2134
      5 C          61.1440   87.5290    9.8112 C.ar    1  UNL1        0.1030
      6 C          60.2644   87.5285    8.5963 C.ar    1  UNL1        0.0581
      7 C          59.8261   88.8273    7.9872 C.ar    1  UNL1        0.1469
      8 C          60.2674   90.1266    8.5932 C.ar    1  UNL1        0.0391
      9 C          61.1470   90.1270    9.8082 C.ar    1  UNL1        0.0219
     10 C          61.5853   88.8282   10.4172 C.ar    1  UNL1        0.0801
     11 N          63.2965   86.2753   12.7879 N.pl3   1  UNL1       -0.2839
     12 H          63.9933   86.7332   13.3115 H       1  UNL1        0.1550
     13 C          62.9958   84.8282   13.0433 C.ar    1  UNL1        0.0504
     14 C          62.5902   84.3772   14.4153 C.ar    1  UNL1        0.0144
     15 C          62.2895   82.9300   14.6707 C.ar    1  UNL1       -0.0030
     16 C          62.3944   81.9338   13.5542 C.ar    1  UNL1       -0.0227
     17 C          62.8000   82.3847   12.1823 C.ar    1  UNL1       -0.0030
     18 C          63.1007   83.8320   11.9269 C.ar    1  UNL1        0.0144
     19 C          62.0937   80.4866   13.8097 C.3     1  UNL1        0.0189
     20 C          63.5327   80.1437   13.5615 C.3     1  UNL1        0.0044
     21 C          60.6547   80.8295   14.0578 C.3     1  UNL1        0.0044
     22 C          61.7929   79.0395   14.0651 C.3     1  UNL1        0.0044
     23 O          58.9464   88.8269    6.7722 O.3     1  UNL1       -0.4533
     24 C          58.9269   90.0176    5.8601 C.ar    1  UNL1        0.1485
     25 C          57.6633   90.8063    5.6833 C.ar    1  UNL1        0.0582
     26 C          57.6437   91.9970    4.7712 C.ar    1  UNL1        0.1021
     27 N          58.8879   92.3988    4.0358 N.ar    1  UNL1       -0.2406
     28 C          60.1514   91.6101    4.2126 C.ar    1  UNL1        0.1181
     29 C          60.1709   90.4195    5.1247 C.ar    1  UNL1        0.0597
     30 C          61.3956   92.0120    3.4772 C.ar    1  UNL1        0.1585
     31 N          62.7511   91.3887    3.6314 N.ar    1  UNL1       -0.2240
     32 C          63.6958   92.0992    2.7080 C.ar    1  UNL1        0.1214
     33 C          62.9241   93.1617    1.9830 C.ar    1  UNL1        0.1493
     34 N          61.5023   93.1078    2.4584 N.ar    1  UNL1       -0.3329
     35 H          60.7683   93.6895    2.1551 H       1  UNL1        0.1674
     36 C          63.4769   94.1113    0.9620 C.3     1  UNL1        0.4344
     37 F          64.0298   95.0609   -0.0590 F       1  UNL1       -0.1644
     38 F          62.4933   93.5984   -0.0476 F       1  UNL1       -0.1644
     39 F          64.4606   94.6242    1.9716 F       1  UNL1       -0.1644
@<TRIPOS>BOND
     1     1     2    1
     2     2     3   ar
     3     3    11    1
     4    11    13    1
     5    13    14   ar
     6    14    15   ar
     7    15    16   ar
     8    16    19    1
     9    19    20    1
    10    19    21    1
    11    19    22    1
    12    16    17   ar
    13    17    18   ar
    14     3     4   ar
    15     4     5   ar
    16     5     6   ar
    17     6     7   ar
    18     7    23    1
    19    23    24    1
    20    24    25   ar
    21    25    26   ar
    22    26    27   ar
    23    27    28   ar
    24    28    30    1
    25    30    31   ar
    26    31    32   ar
    27    32    33   ar
    28    33    36    1
    29    36    37    1
    30    36    38    1
    31    36    39    1
    32    33    34   ar
    33    28    29   ar
    34     7     8   ar
    35     8     9   ar
    36     9    10   ar
    37    10     2   ar
    38    18    13   ar
    39    10     5   ar
    40    29    24   ar
    41    34    30   ar
    42    11    12    1
    43    34    35    1
@<TRIPOS>MOLECULE
*****
 39 43 0 0 0
SMALL
GASTEIGER

@<TRIPOS>ATOM
      1 C          59.8537   90.4396    9.6739 C.3     1  UNL1        0.1332
      2 N          60.0564   89.1492    8.9364 N.ar    1  UNL1       -0.2975
      3 C          59.4945   88.8065    7.5885 C.ar    1  UNL1        0.2017
      4 N          59.9475   87.4205    7.2363 N.ar    1  UNL1       -0.2134
      5 C          60.7894   86.9068    8.3665 C.ar    1  UNL1        0.1030
      6 C          61.5033   85.6041    8.5747 C.ar    1  UNL1        0.0581
      7 C          62.2846   85.3699    9.8335 C.ar    1  UNL1        0.1469
      8 C          62.3519   86.4383   10.8842 C.ar    1  UNL1        0.0391
      9 C          61.6380   87.7410   10.6760 C.ar    1  UNL1        0.0219
     10 C          60.8567   87.9752    9.4172 C.ar    1  UNL1        0.0801
     11 N          58.6312   89.6938    6.7415 N.pl3   1  UNL1       -0.2839
     12 H          57.6594   89.7273    6.8954 H       1  UNL1        0.1550
     13 C          59.2486   90.5300    5.6601 C.ar    1  UNL1        0.0504
     14 C          60.7209   90.4374    5.3887 C.ar    1  UNL1        0.0144
     15 C          61.3383   91.2737    4.3073 C.ar    1  UNL1       -0.0030
     16 C          60.4833   92.2026    3.4972 C.ar    1  UNL1       -0.0227
     17 C          59.0110   92.2952    3.7686 C.ar    1  UNL1       -0.0030
     18 C          58.3936   91.4589    4.8500 C.ar    1  UNL1        0.0144
     19 C          61.1008   93.0389    2.4157 C.3     1  UNL1        0.0189
     20 C          62.4439   92.4470    2.7248 C.3     1  UNL1        0.0044
     21 C          59.7576   93.6308    2.1067 C.3     1  UNL1        0.0044
     22 C          61.7181   93.8751    1.3343 C.3     1  UNL1        0.0044
     23 O          62.9986   84.0672   10.0417 O.3     1  UNL1       -0.4533
     24 C          63.2854   83.5830   11.4321 C.ar    1  UNL1        0.1485
     25 C          63.7851   82.1858   11.6516 C.ar    1  UNL1        0.0582
     26 C          64.0719   81.7016   13.0420 C.ar    1  UNL1        0.1021
     27 N          63.8589   82.6146   14.2130 N.ar    1  UNL1       -0.2406
     28 C          63.3592   84.0118   13.9935 C.ar    1  UNL1        0.1181
     29 C          63.0724   84.4960   12.6030 C.ar    1  UNL1        0.0597
     30 C          63.1462   84.9248   15.1645 C.ar    1  UNL1        0.1585
     31 N          62.5602   84.5370   16.4897 N.ar    1  UNL1       -0.2240
     32 C          62.5337   85.7584   17.3600 C.ar    1  UNL1        0.1214
     33 C          63.1033   86.9011   16.5726 C.ar    1  UNL1        0.1493
     34 N          63.4819   86.3858   15.2156 N.ar    1  UNL1       -0.3329
     35 H          63.8807   86.9139   14.4867 H       1  UNL1        0.1674
     36 C          63.2658   88.3114   17.0571 C.3     1  UNL1        0.4344
     37 F          63.4284   89.7216   17.5416 F       1  UNL1       -0.1644
     38 F          63.6055   88.7509   15.6638 F       1  UNL1       -0.1644
     39 F          62.9262   87.8718   18.4505 F       1  UNL1       -0.1644
@<TRIPOS>BOND
     1     1     2    1
     2     2     3   ar
     3     3    11    1
     4    11    13    1
     5    13    14   ar
     6    14    15   ar
     7    15    16   ar
     8    16    19    1
     9    19    20    1
    10    19    21    1
    11    19    22    1
    12    16    17   ar
    13    17    18   ar
    14     3     4   ar
    15     4     5   ar
    16     5     6   ar
    17     6     7   ar
    18     7    23    1
    19    23    24    1
    20    24    25   ar
    21    25    26   ar
    22    26    27   ar
    23    27    28   ar
    24    28    30    1
    25    30    31   ar
    26    31    32   ar
    27    32    33   ar
    28    33    36    1
    29    36    37    1
    30    36    38    1
    31    36    39    1
    32    33    34   ar
    33    28    29   ar
    34     7     8   ar
    35     8     9   ar
    36     9    10   ar
    37    10     2   ar
    38    18    13   ar
    39    10     5   ar
    40    29    24   ar
    41    34    30   ar
    42    11    12    1
    43    34    35    1
@<TRIPOS>MOLECULE
*****
 39 43 0 0 0
SMALL
GASTEIGER

@<TRIPOS>ATOM
      1 C          59.2149   86.7037    7.2084 C.3     1  UNL1        0.1332
      2 N          59.8291   87.8218    7.9975 N.ar    1  UNL1       -0.2975
      3 C          59.6025   89.2875    7.7731 C.ar    1  UNL1        0.2017
      4 N          60.4111   90.0420    8.7865 N.ar    1  UNL1       -0.2134
      5 C          61.1375   89.0426    9.6371 C.ar    1  UNL1        0.1030
      6 C          62.0800   89.2047   10.7927 C.ar    1  UNL1        0.0581
      7 C          62.6628   87.9947   11.4606 C.ar    1  UNL1        0.1469
      8 C          62.3031   86.6226   10.9730 C.ar    1  UNL1        0.0391
      9 C          61.3606   86.4604    9.8174 C.ar    1  UNL1        0.0219
     10 C          60.7778   87.6704    9.1495 C.ar    1  UNL1        0.0801
     11 N          58.7219   89.8925    6.7203 N.pl3   1  UNL1       -0.2839
     12 H          57.7456   89.7742    6.7675 H       1  UNL1        0.1550
     13 C          59.3286   90.6778    5.5955 C.ar    1  UNL1        0.0504
     14 C          60.7693   90.4745    5.2305 C.ar    1  UNL1        0.0144
     15 C          61.3760   91.2597    4.1057 C.ar    1  UNL1       -0.0030
     16 C          60.5421   92.2483    3.3459 C.ar    1  UNL1       -0.0227
     17 C          59.1015   92.4517    3.7109 C.ar    1  UNL1       -0.0030
     18 C          58.4947   91.6664    4.8357 C.ar    1  UNL1        0.0144
     19 C          61.1489   93.0336    2.2211 C.3     1  UNL1        0.0189
     20 C          59.7826   93.4889    1.8018 C.3     1  UNL1        0.0044
     21 C          62.5152   92.5784    2.6403 C.3     1  UNL1        0.0044
     22 C          61.7557   93.8189    1.0963 C.3     1  UNL1        0.0044
     23 O          63.6053   88.1569   12.6163 O.3     1  UNL1       -0.4533
     24 C          63.6626   87.1108   13.6898 C.ar    1  UNL1        0.1485
     25 C          64.0238   87.4960   15.0938 C.ar    1  UNL1        0.0582
     26 C          64.0811   86.4499   16.1674 C.ar    1  UNL1        0.1021
     27 N          63.7771   85.0186   15.8369 N.ar    1  UNL1       -0.2406
     28 C          63.4159   84.6335   14.4329 C.ar    1  UNL1        0.1181
     29 C          63.3586   85.6796   13.3594 C.ar    1  UNL1        0.0597
     30 C          63.1120   83.2022   14.1024 C.ar    1  UNL1        0.1585
     31 N          64.0539   82.2259   13.4625 N.ar    1  UNL1       -0.2240
     32 C          63.3368   80.9163   13.3184 C.ar    1  UNL1        0.1214
     33 C          61.9516   81.0833   13.8693 C.ar    1  UNL1        0.1493
     34 N          61.8126   82.4962   14.3538 N.ar    1  UNL1       -0.3329
     35 H          61.0096   82.8907   14.7647 H       1  UNL1        0.1674
     36 C          60.8915   80.0236   13.9256 C.3     1  UNL1        0.4344
     37 F          59.8314   78.9639   13.9820 F       1  UNL1       -0.1644
     38 F          61.8750   79.0126   13.4153 F       1  UNL1       -0.1644
     39 F          59.9079   81.0346   14.4360 F       1  UNL1       -0.1644
@<TRIPOS>BOND
     1     1     2    1
     2     2     3   ar
     3     3    11    1
     4    11    13    1
     5    13    14   ar
     6    14    15   ar
     7    15    16   ar
     8    16    19    1
     9    19    20    1
    10    19    21    1
    11    19    22    1
    12    16    17   ar
    13    17    18   ar
    14     3     4   ar
    15     4     5   ar
    16     5     6   ar
    17     6     7   ar
    18     7    23    1
    19    23    24    1
    20    24    25   ar
    21    25    26   ar
    22    26    27   ar
    23    27    28   ar
    24    28    30    1
    25    30    31   ar
    26    31    32   ar
    27    32    33   ar
    28    33    36    1
    29    36    37    1
    30    36    38    1
    31    36    39    1
    32    33    34   ar
    33    28    29   ar
    34     7     8   ar
    35     8     9   ar
    36     9    10   ar
    37    10     2   ar
    38    18    13   ar
    39    10     5   ar
    40    29    24   ar
    41    34    30   ar
    42    11    12    1
    43    34    35    1
@<TRIPOS>MOLECULE
*****
 39 43 0 0 0
SMALL
GASTEIGER

@<TRIPOS>ATOM
      1 C          63.5086   93.0775    1.7206 C.3     1  UNL1        0.1332
      2 N          62.0801   93.1642    2.1698 N.ar    1  UNL1       -0.2975
      3 C          61.0485   94.1204    1.6487 C.ar    1  UNL1        0.2017
      4 N          59.7632   93.8570    2.3758 N.ar    1  UNL1       -0.2134
      5 C          60.0004   92.7381    3.3463 C.ar    1  UNL1        0.1030
      6 C          59.0976   92.0539    4.3295 C.ar    1  UNL1        0.0581
      7 C          59.6267   90.9415    5.1853 C.ar    1  UNL1        0.1469
      8 C          61.0586   90.5133    5.0579 C.ar    1  UNL1        0.0391
      9 C          61.9614   91.1975    4.0748 C.ar    1  UNL1        0.0219
     10 C          61.4324   92.3099    3.2190 C.ar    1  UNL1        0.0801
     11 N          61.2643   95.1577    0.5869 N.pl3   1  UNL1       -0.2839
     12 H          60.8816   96.0585    0.6938 H       1  UNL1        0.1550
     13 C          62.0632   94.8227   -0.6376 C.ar    1  UNL1        0.0504
     14 C          61.5414   93.8183   -1.6220 C.ar    1  UNL1        0.0144
     15 C          62.3403   93.4832   -2.8465 C.ar    1  UNL1       -0.0030
     16 C          63.6610   94.1525   -3.0867 C.ar    1  UNL1       -0.0227
     17 C          64.1828   95.1569   -2.1024 C.ar    1  UNL1       -0.0030
     18 C          63.3839   95.4920   -0.8778 C.ar    1  UNL1        0.0144
     19 C          64.4599   93.8174   -4.3113 C.3     1  UNL1        0.0189
     20 C          64.6977   95.2781   -4.5559 C.3     1  UNL1        0.0044
     21 C          64.2221   92.3568   -4.0666 C.3     1  UNL1        0.0044
     22 C          65.2588   93.4823   -5.5358 C.3     1  UNL1        0.0044
     23 O          58.7238   90.2572    6.1685 O.3     1  UNL1       -0.4533
     24 C          59.2953   89.2971    7.1693 C.ar    1  UNL1        0.1485
     25 C          58.9496   87.8394    7.0925 C.ar    1  UNL1        0.0582
     26 C          59.5211   86.8793    8.0933 C.ar    1  UNL1        0.1021
     27 N          60.4383   87.3769    9.1709 N.ar    1  UNL1       -0.2406
     28 C          60.7841   88.8344    9.2476 C.ar    1  UNL1        0.1181
     29 C          60.2126   89.7945    8.2469 C.ar    1  UNL1        0.0597
     30 C          61.7014   89.3320   10.3252 C.ar    1  UNL1        0.1585
     31 N          62.2304   90.7294   10.4570 N.ar    1  UNL1       -0.2240
     32 C          63.1066   90.7804   11.6734 C.ar    1  UNL1        0.1214
     33 C          63.1191   89.4146   12.2935 C.ar    1  UNL1        0.1493
     34 N          62.2505   88.5193   11.4602 N.ar    1  UNL1       -0.3329
     35 H          62.0722   87.5659   11.6286 H       1  UNL1        0.1674
     36 C          63.8685   89.0143   13.5296 C.3     1  UNL1        0.4344
     37 F          64.6178   88.6139   14.7658 F       1  UNL1       -0.1644
     38 F          63.8923   90.4453   13.9786 F       1  UNL1       -0.1644
     39 F          63.8447   87.5833   13.0806 F       1  UNL1       -0.1644
@<TRIPOS>BOND
     1     1     2    1
     2     2     3   ar
     3     3    11    1
     4    11    13    1
     5    13    14   ar
     6    14    15   ar
     7    15    16   ar
     8    16    19    1
     9    19    20    1
    10    19    21    1
    11    19    22    1
    12    16    17   ar
    13    17    18   ar
    14     3     4   ar
    15     4     5   ar
    16     5     6   ar
    17     6     7   ar
    18     7    23    1
    19    23    24    1
    20    24    25   ar
    21    25    26   ar
    22    26    27   ar
    23    27    28   ar
    24    28    30    1
    25    30    31   ar
    26    31    32   ar
    27    32    33   ar
    28    33    36    1
    29    36    37    1
    30    36    38    1
    31    36    39    1
    32    33    34   ar
    33    28    29   ar
    34     7     8   ar
    35     8     9   ar
    36     9    10   ar
    37    10     2   ar
    38    18    13   ar
    39    10     5   ar
    40    29    24   ar
    41    34    30   ar
    42    11    12    1
    43    34    35    1
@<TRIPOS>MOLECULE
*****
 39 43 0 0 0
SMALL
GASTEIGER

@<TRIPOS>ATOM
      1 C          60.1082   93.8652   -3.4092 C.3     1  UNL1        0.1332
      2 N          59.7616   94.3291   -2.0255 N.ar    1  UNL1       -0.2975
      3 C          58.9169   95.5197   -1.6805 C.ar    1  UNL1        0.2017
      4 N          58.8322   95.6103   -0.1856 N.ar    1  UNL1       -0.2134
      5 C          59.6245   94.4758    0.3932 C.ar    1  UNL1        0.1030
      6 C          59.8972   94.0615    1.8088 C.ar    1  UNL1        0.0581
      7 C          60.7442   92.8553    2.0873 C.ar    1  UNL1        0.1469
      8 C          61.3187   92.0635    0.9502 C.ar    1  UNL1        0.0391
      9 C          61.0461   92.4778   -0.4654 C.ar    1  UNL1        0.0219
     10 C          60.1990   93.6840   -0.7439 C.ar    1  UNL1        0.0801
     11 N          58.2704   96.4553   -2.6586 N.pl3   1  UNL1       -0.2839
     12 H          58.8146   97.1249   -3.1326 H       1  UNL1        0.1550
     13 C          56.7949   96.3707   -2.9144 C.ar    1  UNL1        0.0504
     14 C          55.8249   96.8524   -1.8766 C.ar    1  UNL1        0.0144
     15 C          54.3493   96.7678   -2.1324 C.ar    1  UNL1       -0.0030
     16 C          53.8437   96.2015   -3.4261 C.ar    1  UNL1       -0.0227
     17 C          54.8136   95.7198   -4.4639 C.ar    1  UNL1       -0.0030
     18 C          56.2892   95.8044   -4.2081 C.ar    1  UNL1        0.0144
     19 C          52.3680   96.1169   -3.6819 C.3     1  UNL1        0.0189
     20 C          52.6020   96.4204   -5.1321 C.3     1  UNL1        0.0044
     21 C          52.1341   95.8134   -2.2317 C.3     1  UNL1        0.0044
     22 C          50.8924   96.0323   -3.9377 C.3     1  UNL1        0.0044
     23 O          61.0169   92.4409    3.5030 O.3     1  UNL1       -0.4533
     24 C          59.9387   91.7842    4.3131 C.ar    1  UNL1        0.1485
     25 C          58.4995   92.1251    4.0627 C.ar    1  UNL1        0.0582
     26 C          57.4214   91.4685    4.8728 C.ar    1  UNL1        0.1021
     27 N          57.7824   90.4709    5.9333 N.ar    1  UNL1       -0.2406
     28 C          59.2215   90.1301    6.1837 C.ar    1  UNL1        0.1181
     29 C          60.2997   90.7867    5.3736 C.ar    1  UNL1        0.0597
     30 C          59.5825   89.1325    7.2442 C.ar    1  UNL1        0.1585
     31 N          59.0669   87.7276    7.3453 N.ar    1  UNL1       -0.2240
     32 C          59.6882   87.0916    8.5534 C.ar    1  UNL1        0.1214
     33 C          60.5879   88.1035    9.1990 C.ar    1  UNL1        0.1493
     34 N          60.5225   89.3649    8.3898 N.ar    1  UNL1       -0.3329
     35 H          61.0108   90.1989    8.5776 H       1  UNL1        0.1674
     36 C          61.4087   87.8913   10.4363 C.3     1  UNL1        0.4344
     37 F          62.2296   87.6790   11.6737 F       1  UNL1       -0.1644
     38 F          60.1850   87.4255   11.1682 F       1  UNL1       -0.1644
     39 F          62.6324   88.3570    9.7045 F       1  UNL1       -0.1644
@<TRIPOS>BOND
     1     1     2    1
     2     2     3   ar
     3     3    11    1
     4    11    13    1
     5    13    14   ar
     6    14    15   ar
     7    15    16   ar
     8    16    19    1
     9    19    20    1
    10    19    21    1
    11    19    22    1
    12    16    17   ar
    13    17    18   ar
    14     3     4   ar
    15     4     5   ar
    16     5     6   ar
    17     6     7   ar
    18     7    23    1
    19    23    24    1
    20    24    25   ar
    21    25    26   ar
    22    26    27   ar
    23    27    28   ar
    24    28    30    1
    25    30    31   ar
    26    31    32   ar
    27    32    33   ar
    28    33    36    1
    29    36    37    1
    30    36    38    1
    31    36    39    1
    32    33    34   ar
    33    28    29   ar
    34     7     8   ar
    35     8     9   ar
    36     9    10   ar
    37    10     2   ar
    38    18    13   ar
    39    10     5   ar
    40    29    24   ar
    41    34    30   ar
    42    11    12    1
    43    34    35    1
@<TRIPOS>MOLECULE
*****
 39 43 0 0 0
SMALL
GASTEIGER

@<TRIPOS>ATOM
      1 C          59.6649   86.9371    7.1951 C.3     1  UNL1        0.1332
      2 N          59.7886   88.2234    7.9567 N.ar    1  UNL1       -0.2975
      3 C          59.3432   89.5750    7.4827 C.ar    1  UNL1        0.2017
      4 N          59.6588   90.5709    8.5591 N.ar    1  UNL1       -0.2134
      5 C          60.2993   89.8347    9.6984 C.ar    1  UNL1        0.1030
      6 C          60.8198   90.2981   11.0266 C.ar    1  UNL1        0.0581
      7 C          61.4206   89.3105   11.9826 C.ar    1  UNL1        0.1469
      8 C          61.5008   87.8597   11.6102 C.ar    1  UNL1        0.0391
      9 C          60.9803   87.3964   10.2820 C.ar    1  UNL1        0.0219
     10 C          60.3795   88.3839    9.3260 C.ar    1  UNL1        0.0801
     11 N          58.6958   89.8777    6.1639 N.pl3   1  UNL1       -0.2839
     12 H          57.8124   89.4990    5.9508 H       1  UNL1        0.1550
     13 C          59.3943   90.7573    5.1698 C.ar    1  UNL1        0.0504
     14 C          58.6231   91.8055    4.4236 C.ar    1  UNL1        0.0144
     15 C          59.3217   92.6851    3.4296 C.ar    1  UNL1       -0.0030
     16 C          60.7914   92.5166    3.1816 C.ar    1  UNL1       -0.0227
     17 C          61.5626   91.4685    3.9277 C.ar    1  UNL1       -0.0030
     18 C          60.8640   90.5888    4.9218 C.ar    1  UNL1        0.0144
     19 C          61.4899   93.3963    2.1874 C.3     1  UNL1        0.0189
     20 C          60.2257   94.1796    1.9921 C.3     1  UNL1        0.0044
     21 C          62.7542   92.6131    2.3827 C.3     1  UNL1        0.0044
     22 C          62.1885   94.2759    1.1933 C.3     1  UNL1        0.0044
     23 O          61.9411   89.7739   13.3109 O.3     1  UNL1       -0.4533
     24 C          63.3553   90.2585   13.4346 C.ar    1  UNL1        0.1485
     25 C          64.2361   89.7306   14.5280 C.ar    1  UNL1        0.0582
     26 C          65.6503   90.2153   14.6516 C.ar    1  UNL1        0.1021
     27 N          66.1835   91.2279   13.6820 N.ar    1  UNL1       -0.2406
     28 C          65.3027   91.7559   12.5887 C.ar    1  UNL1        0.1181
     29 C          63.8885   91.2712   12.4650 C.ar    1  UNL1        0.0597
     30 C          65.8359   92.7685   11.6190 C.ar    1  UNL1        0.1585
     31 N          67.2749   92.9507   11.2366 N.ar    1  UNL1       -0.2240
     32 C          67.3521   94.0715   10.2428 C.ar    1  UNL1        0.1214
     33 C          65.9608   94.5822   10.0109 C.ar    1  UNL1        0.1493
     34 N          65.0237   93.7768   10.8616 N.ar    1  UNL1       -0.3329
     35 H          64.0471   93.8901   10.9136 H       1  UNL1        0.1674
     36 C          65.5744   95.7015    9.0902 C.3     1  UNL1        0.4344
     37 F          65.1880   96.8209    8.1695 F       1  UNL1       -0.1644
     38 F          64.4117   96.0310    9.9788 F       1  UNL1       -0.1644
     39 F          66.7371   95.3720    8.2017 F       1  UNL1       -0.1644
@<TRIPOS>BOND
     1     1     2    1
     2     2     3   ar
     3     3    11    1
     4    11    13    1
     5    13    14   ar
     6    14    15   ar
     7    15    16   ar
     8    16    19    1
     9    19    20    1
    10    19    21    1
    11    19    22    1
    12    16    17   ar
    13    17    18   ar
    14     3     4   ar
    15     4     5   ar
    16     5     6   ar
    17     6     7   ar
    18     7    23    1
    19    23    24    1
    20    24    25   ar
    21    25    26   ar
    22    26    27   ar
    23    27    28   ar
    24    28    30    1
    25    30    31   ar
    26    31    32   ar
    27    32    33   ar
    28    33    36    1
    29    36    37    1
    30    36    38    1
    31    36    39    1
    32    33    34   ar
    33    28    29   ar
    34     7     8   ar
    35     8     9   ar
    36     9    10   ar
    37    10     2   ar
    38    18    13   ar
    39    10     5   ar
    40    29    24   ar
    41    34    30   ar
    42    11    12    1
    43    34    35    1
