@<TRIPOS>MOLECULE
*****
 33 36 0 0 0
SMALL
GASTEIGER

@<TRIPOS>ATOM
      1 C          62.5768   85.2347   12.2897 C.3     1  UNL1        0.1532
      2 C          62.2728   78.4315   13.2249 C.3     1  UNL1        0.0897
      3 N          62.4675   79.8493   12.7756 N.3     1  UNL1       -0.2686
      4 C          63.1371   80.1352   11.4642 C.3     1  UNL1        0.0939
      5 C          63.3318   81.5530   11.0148 C.3     1  UNL1        0.1108
      6 N          62.8570   82.6849   11.8769 N.am    1  UNL1       -0.2753
      7 C          63.0517   84.1027   11.4276 C.2     1  UNL1        0.2439
      8 O          63.7213   84.3886   10.1161 O.2     1  UNL1       -0.2731
      9 C          62.1874   82.3990   13.1883 C.3     1  UNL1        0.1108
     10 C          61.9927   80.9812   13.6377 C.3     1  UNL1        0.0939
     11 N          61.8934   84.9485   13.5940 N.am    1  UNL1       -0.2978
     12 C          62.6474   85.0912   14.8828 C.2     1  UNL1        0.2257
     13 O          61.9640   84.8050   16.1872 O.2     1  UNL1       -0.2748
     14 H          60.9501   84.6670   13.6041 H       1  UNL1        0.1498
     15 C          64.0847   85.5200   14.8675 C.3     1  UNL1        0.0884
     16 C          65.5771   85.4435   14.7383 C.3     1  UNL1        0.0135
     17 C          64.7427   84.2139   14.5343 C.3     1  UNL1        0.0135
     18 C          63.9259   86.9751   15.1953 C.ar    1  UNL1       -0.0040
     19 C          64.2653   88.0162   14.1701 C.ar    1  UNL1       -0.0021
     20 C          64.1065   89.4713   14.4980 C.ar    1  UNL1        0.0111
     21 C          63.6084   89.8853   15.8509 C.ar    1  UNL1        0.0585
     22 CL         63.4496   91.3405   16.1787 Cl      1  UNL1       -0.0822
     23 C          63.2690   88.8443   16.8760 C.ar    1  UNL1        0.0225
     24 C          63.4277   87.3892   16.5482 C.ar    1  UNL1        0.0550
     25 CL         63.0883   86.3480   17.5734 Cl      1  UNL1       -0.0825
     26 C          62.7853   86.6528   11.8475 C.3     1  UNL1        0.0553
     27 C          61.9362   87.2300   10.7540 C.ar    1  UNL1       -0.0200
     28 C          60.9820   86.3503   10.0020 C.ar    1  UNL1       -0.0037
     29 C          60.1328   86.9275    8.9084 C.ar    1  UNL1        0.0064
     30 C          60.2380   88.3843    8.5669 C.ar    1  UNL1        0.0345
     31 BR         59.3889   88.9615    7.4733 Br      1  UNL1       -0.0490
     32 C          61.1923   89.2640    9.3190 C.ar    1  UNL1        0.0064
     33 C          62.0414   88.6868   10.4125 C.ar    1  UNL1       -0.0037
@<TRIPOS>BOND
     1     2     3    1
     2     3     4    1
     3     4     5    1
     4     5     6    1
     5     6     7   am
     6     7     8    2
     7     7     1    1
     8     1    26    1
     9    26    27    1
    10    27    28   ar
    11    28    29   ar
    12    29    30   ar
    13    30    31    1
    14    30    32   ar
    15    32    33   ar
    16     1    11    1
    17    11    12   am
    18    12    13    2
    19    12    15    1
    20    15    18    1
    21    18    19   ar
    22    19    20   ar
    23    20    21   ar
    24    21    22    1
    25    21    23   ar
    26    23    24   ar
    27    24    25    1
    28    15    16    1
    29    16    17    1
    30     6     9    1
    31     9    10    1
    32    10     3    1
    33    33    27   ar
    34    17    15    1
    35    24    18   ar
    36    11    14    1
@<TRIPOS>MOLECULE
*****
 33 36 0 0 0
SMALL
GASTEIGER

@<TRIPOS>ATOM
      1 C          64.9442   91.0152   13.7925 C.3     1  UNL1        0.1532
      2 C          63.0520   85.0949   16.7284 C.3     1  UNL1        0.0897
      3 N          63.3407   86.5073   16.3139 N.3     1  UNL1       -0.2686
      4 C          62.8919   87.6489   17.1771 C.3     1  UNL1        0.0939
      5 C          63.1805   89.0613   16.7626 C.3     1  UNL1        0.1108
      6 N          63.9180   89.3320   15.4848 N.am    1  UNL1       -0.2753
      7 C          64.2067   90.7444   15.0703 C.2     1  UNL1        0.2439
      8 O          63.7578   91.8860   15.9335 O.2     1  UNL1       -0.2731
      9 C          64.3668   88.1904   14.6216 C.3     1  UNL1        0.1108
     10 C          64.0782   86.7780   15.0361 C.3     1  UNL1        0.0939
     11 N          66.4188   90.7538   13.7078 N.am    1  UNL1       -0.2978
     12 C          67.3736   91.8958   13.5231 C.2     1  UNL1        0.2257
     13 O          68.8482   91.6344   13.4384 O.2     1  UNL1       -0.2748
     14 H          66.7600   89.8326   13.7734 H       1  UNL1        0.1498
     15 C          66.8537   93.2993   13.4231 C.3     1  UNL1        0.0884
     16 C          66.2763   94.6211   13.8344 C.3     1  UNL1        0.0135
     17 C          66.5071   93.5517   14.8605 C.3     1  UNL1        0.0135
     18 C          67.0198   93.5343   11.9510 C.ar    1  UNL1       -0.0040
     19 C          67.5277   92.4330   11.0683 C.ar    1  UNL1       -0.0021
     20 C          67.6938   92.6681    9.5961 C.ar    1  UNL1        0.0111
     21 C          67.3519   94.0043    9.0067 C.ar    1  UNL1        0.0585
     22 CL         67.5180   94.2394    7.5345 Cl      1  UNL1       -0.0822
     23 C          66.8440   95.1057    9.8894 C.ar    1  UNL1        0.0225
     24 C          66.6780   94.8706   11.3615 C.ar    1  UNL1        0.0550
     25 CL         66.1701   95.9719   12.2442 Cl      1  UNL1       -0.0825
     26 C          64.2071   91.5474   12.5994 C.3     1  UNL1        0.0553
     27 C          63.3890   90.6215   11.7489 C.ar    1  UNL1       -0.0200
     28 C          63.1732   89.2012   12.1801 C.ar    1  UNL1       -0.0037
     29 C          62.3551   88.2752   11.3295 C.ar    1  UNL1        0.0064
     30 C          61.7529   88.7696   10.0477 C.ar    1  UNL1        0.0345
     31 BR         60.9349   87.8437    9.1972 Br      1  UNL1       -0.0490
     32 C          61.9688   90.1901    9.6166 C.ar    1  UNL1        0.0064
     33 C          62.7869   91.1159   10.4671 C.ar    1  UNL1       -0.0037
@<TRIPOS>BOND
     1     2     3    1
     2     3     4    1
     3     4     5    1
     4     5     6    1
     5     6     7   am
     6     7     8    2
     7     7     1    1
     8     1    26    1
     9    26    27    1
    10    27    28   ar
    11    28    29   ar
    12    29    30   ar
    13    30    31    1
    14    30    32   ar
    15    32    33   ar
    16     1    11    1
    17    11    12   am
    18    12    13    2
    19    12    15    1
    20    15    18    1
    21    18    19   ar
    22    19    20   ar
    23    20    21   ar
    24    21    22    1
    25    21    23   ar
    26    23    24   ar
    27    24    25    1
    28    15    16    1
    29    16    17    1
    30     6     9    1
    31     9    10    1
    32    10     3    1
    33    33    27   ar
    34    17    15    1
    35    24    18   ar
    36    11    14    1
@<TRIPOS>MOLECULE
*****
 33 36 0 0 0
SMALL
GASTEIGER

@<TRIPOS>ATOM
      1 C          63.0343   89.7465   14.1809 C.3     1  UNL1        0.1532
      2 C          69.0082   93.1018   14.7324 C.3     1  UNL1        0.0897
      3 N          67.6507   92.4786   14.8696 N.3     1  UNL1       -0.2686
      4 C          66.8369   92.7182   16.1066 C.3     1  UNL1        0.0939
      5 C          65.4794   92.0951   16.2437 C.3     1  UNL1        0.1108
      6 N          64.9356   91.2324   15.1438 N.am    1  UNL1       -0.2753
      7 C          63.5781   90.6092   15.2809 C.2     1  UNL1        0.2439
      8 O          62.7643   90.8488   16.5179 O.2     1  UNL1       -0.2731
      9 C          65.7493   90.9928   13.9067 C.3     1  UNL1        0.1108
     10 C          67.1069   91.6159   13.7696 C.3     1  UNL1        0.0939
     11 N          61.5812   89.8232   13.8163 N.am    1  UNL1       -0.2978
     12 C          61.1763   90.0175   12.3852 C.2     1  UNL1        0.2257
     13 O          59.7232   90.0942   12.0207 O.2     1  UNL1       -0.2748
     14 H          60.8933   89.7460   14.5164 H       1  UNL1        0.1498
     15 C          62.2243   90.1352   11.3185 C.3     1  UNL1        0.0884
     16 C          63.4181   90.6425   10.5654 C.3     1  UNL1        0.0135
     17 C          63.0082   91.2981   11.8507 C.3     1  UNL1        0.0135
     18 C          61.8044   89.0132   10.4159 C.ar    1  UNL1       -0.0040
     19 C          62.5096   87.6911   10.4850 C.ar    1  UNL1       -0.0021
     20 C          62.0897   86.5691    9.5823 C.ar    1  UNL1        0.0111
     21 C          60.9647   86.7692    8.6106 C.ar    1  UNL1        0.0585
     22 CL         60.5448   85.6471    7.7079 Cl      1  UNL1       -0.0822
     23 C          60.2595   88.0912    8.5415 C.ar    1  UNL1        0.0225
     24 C          60.6794   89.2132    9.4441 C.ar    1  UNL1        0.0550
     25 CL         59.9742   90.5354    9.3751 Cl      1  UNL1       -0.0825
     26 C          63.9435   88.8071   13.4454 C.3     1  UNL1        0.0553
     27 C          63.9446   87.3458   13.7837 C.ar    1  UNL1       -0.0200
     28 C          64.6117   86.8671   15.0389 C.ar    1  UNL1       -0.0037
     29 C          64.6129   85.4057   15.3772 C.ar    1  UNL1        0.0064
     30 C          63.9468   84.4231   14.4602 C.ar    1  UNL1        0.0345
     31 BR         63.9479   82.9617   14.7985 Br      1  UNL1       -0.0490
     32 C          63.2796   84.9019   13.2050 C.ar    1  UNL1        0.0064
     33 C          63.2785   86.3632   12.8667 C.ar    1  UNL1       -0.0037
@<TRIPOS>BOND
     1     2     3    1
     2     3     4    1
     3     4     5    1
     4     5     6    1
     5     6     7   am
     6     7     8    2
     7     7     1    1
     8     1    26    1
     9    26    27    1
    10    27    28   ar
    11    28    29   ar
    12    29    30   ar
    13    30    31    1
    14    30    32   ar
    15    32    33   ar
    16     1    11    1
    17    11    12   am
    18    12    13    2
    19    12    15    1
    20    15    18    1
    21    18    19   ar
    22    19    20   ar
    23    20    21   ar
    24    21    22    1
    25    21    23   ar
    26    23    24   ar
    27    24    25    1
    28    15    16    1
    29    16    17    1
    30     6     9    1
    31     9    10    1
    32    10     3    1
    33    33    27   ar
    34    17    15    1
    35    24    18   ar
    36    11    14    1
@<TRIPOS>MOLECULE
*****
 33 36 0 0 0
SMALL
GASTEIGER

@<TRIPOS>ATOM
      1 C          62.3785   87.3420   11.5031 C.3     1  UNL1        0.1532
      2 C          63.0365   80.5821   12.5614 C.3     1  UNL1        0.0897
      3 N          63.0706   82.0817   12.5516 N.3     1  UNL1       -0.2686
      4 C          63.8991   82.8196   13.5610 C.3     1  UNL1        0.0939
      5 C          63.9332   84.3192   13.5513 C.3     1  UNL1        0.1108
      6 N          63.1388   85.0808   12.5321 N.am    1  UNL1       -0.2753
      7 C          63.1729   86.5804   12.5223 C.2     1  UNL1        0.2439
      8 O          64.0014   87.3184   13.5317 O.2     1  UNL1       -0.2731
      9 C          62.3103   84.3429   11.5227 C.3     1  UNL1        0.1108
     10 C          62.2762   82.8433   11.5325 C.3     1  UNL1        0.0939
     11 N          61.0624   87.9538   11.8823 N.am    1  UNL1       -0.2978
     12 C          60.7925   89.3984   11.5817 C.2     1  UNL1        0.2257
     13 O          59.4764   90.0102   11.9609 O.2     1  UNL1       -0.2748
     14 H          60.3758   87.4072   12.3284 H       1  UNL1        0.1498
     15 C          61.8386   90.2312   10.9019 C.3     1  UNL1        0.0884
     16 C          62.5780   90.9544    9.8156 C.3     1  UNL1        0.0135
     17 C          61.3189   90.2050    9.4951 C.3     1  UNL1        0.0135
     18 C          62.7218   90.5466   12.0726 C.ar    1  UNL1       -0.0040
     19 C          62.3580   90.0519   13.4412 C.ar    1  UNL1       -0.0021
     20 C          63.2411   90.3673   14.6120 C.ar    1  UNL1        0.0111
     21 C          64.4879   91.1774   14.4141 C.ar    1  UNL1        0.0585
     22 CL         65.3711   91.4929   15.5849 Cl      1  UNL1       -0.0822
     23 C          64.8517   91.6722   13.0456 C.ar    1  UNL1        0.0225
     24 C          63.9686   91.3567   11.8749 C.ar    1  UNL1        0.0550
     25 CL         64.3323   91.8514   10.5063 Cl      1  UNL1       -0.0825
     26 C          62.9001   87.4919   10.1047 C.3     1  UNL1        0.0553
     27 C          62.3905   86.5969    9.0142 C.ar    1  UNL1       -0.0200
     28 C          63.3131   85.6118    8.3599 C.ar    1  UNL1       -0.0037
     29 C          62.8035   84.7167    7.2694 C.ar    1  UNL1        0.0064
     30 C          61.3712   84.8069    6.8331 C.ar    1  UNL1        0.0345
     31 BR         60.8615   83.9120    5.7426 Br      1  UNL1       -0.0490
     32 C          60.4485   85.7922    7.4874 C.ar    1  UNL1        0.0064
     33 C          60.9581   86.6871    8.5779 C.ar    1  UNL1       -0.0037
@<TRIPOS>BOND
     1     2     3    1
     2     3     4    1
     3     4     5    1
     4     5     6    1
     5     6     7   am
     6     7     8    2
     7     7     1    1
     8     1    26    1
     9    26    27    1
    10    27    28   ar
    11    28    29   ar
    12    29    30   ar
    13    30    31    1
    14    30    32   ar
    15    32    33   ar
    16     1    11    1
    17    11    12   am
    18    12    13    2
    19    12    15    1
    20    15    18    1
    21    18    19   ar
    22    19    20   ar
    23    20    21   ar
    24    21    22    1
    25    21    23   ar
    26    23    24   ar
    27    24    25    1
    28    15    16    1
    29    16    17    1
    30     6     9    1
    31     9    10    1
    32    10     3    1
    33    33    27   ar
    34    17    15    1
    35    24    18   ar
    36    11    14    1
@<TRIPOS>MOLECULE
*****
 33 36 0 0 0
SMALL
GASTEIGER

@<TRIPOS>ATOM
      1 C          63.0268   85.6328   13.2416 C.3     1  UNL1        0.1532
      2 C          64.3637   92.3110   12.3112 C.3     1  UNL1        0.0897
      3 N          64.2149   90.8869   12.7583 N.3     1  UNL1       -0.2686
      4 C          64.8077   90.4446   14.0632 C.3     1  UNL1        0.0939
      5 C          64.6589   89.0205   14.5103 C.3     1  UNL1        0.1108
      6 N          63.9173   88.0387   13.6524 N.am    1  UNL1       -0.2753
      7 C          63.7685   86.6147   14.0995 C.2     1  UNL1        0.2439
      8 O          64.3613   86.1724   15.4044 O.2     1  UNL1       -0.2731
      9 C          63.3244   88.4810   12.3475 C.3     1  UNL1        0.1108
     10 C          63.4732   89.9051   11.9004 C.3     1  UNL1        0.0939
     11 N          61.9459   84.7815   13.8391 N.am    1  UNL1       -0.2978
     12 C          62.2454   83.3719   14.2554 C.2     1  UNL1        0.2257
     13 O          61.1645   82.5206   14.8528 O.2     1  UNL1       -0.2748
     14 H          61.0399   85.1479   13.9579 H       1  UNL1        0.1498
     15 C          63.6259   82.8137   14.0744 C.3     1  UNL1        0.0884
     16 C          65.0838   82.5543   14.3130 C.3     1  UNL1        0.0135
     17 C          64.3287   83.4804   15.2197 C.3     1  UNL1        0.0135
     18 C          63.4025   81.9531   12.8663 C.ar    1  UNL1       -0.0040
     19 C          63.6876   82.4945   11.4968 C.ar    1  UNL1       -0.0021
     20 C          63.4642   81.6339   10.2887 C.ar    1  UNL1        0.0111
     21 C          62.9558   80.2320   10.4501 C.ar    1  UNL1        0.0585
     22 CL         62.7324   79.3714    9.2419 Cl      1  UNL1       -0.0822
     23 C          62.6708   79.6906   11.8196 C.ar    1  UNL1        0.0225
     24 C          62.8941   80.5511   13.0277 C.ar    1  UNL1        0.0550
     25 CL         62.6091   80.0097   14.3973 Cl      1  UNL1       -0.0825
     26 C          63.3661   85.5023   11.7863 C.3     1  UNL1        0.0553
     27 C          62.3526   85.8715   10.7440 C.ar    1  UNL1       -0.0200
     28 C          62.5545   85.4491    9.3189 C.ar    1  UNL1       -0.0037
     29 C          61.5411   85.8183    8.2764 C.ar    1  UNL1        0.0064
     30 C          60.3257   86.6098    8.6591 C.ar    1  UNL1        0.0345
     31 BR         59.3123   86.9789    7.6167 Br      1  UNL1       -0.0490
     32 C          60.1238   87.0322   10.0842 C.ar    1  UNL1        0.0064
     33 C          61.1373   86.6630   11.1266 C.ar    1  UNL1       -0.0037
@<TRIPOS>BOND
     1     2     3    1
     2     3     4    1
     3     4     5    1
     4     5     6    1
     5     6     7   am
     6     7     8    2
     7     7     1    1
     8     1    26    1
     9    26    27    1
    10    27    28   ar
    11    28    29   ar
    12    29    30   ar
    13    30    31    1
    14    30    32   ar
    15    32    33   ar
    16     1    11    1
    17    11    12   am
    18    12    13    2
    19    12    15    1
    20    15    18    1
    21    18    19   ar
    22    19    20   ar
    23    20    21   ar
    24    21    22    1
    25    21    23   ar
    26    23    24   ar
    27    24    25    1
    28    15    16    1
    29    16    17    1
    30     6     9    1
    31     9    10    1
    32    10     3    1
    33    33    27   ar
    34    17    15    1
    35    24    18   ar
    36    11    14    1
@<TRIPOS>MOLECULE
*****
 33 36 0 0 0
SMALL
GASTEIGER

@<TRIPOS>ATOM
      1 C          61.1167   95.2954   -1.3536 C.3     1  UNL1        0.1532
      2 C          65.7554   94.9215   -6.4125 C.3     1  UNL1        0.0897
      3 N          64.7208   94.7215   -5.3449 N.3     1  UNL1       -0.2686
      4 C          64.1869   93.3479   -5.0658 C.3     1  UNL1        0.0939
      5 C          63.1524   93.1479   -3.9982 C.3     1  UNL1        0.1108
      6 N          62.6518   94.3216   -3.2097 N.am    1  UNL1       -0.2753
      7 C          61.6173   94.1217   -2.1421 C.2     1  UNL1        0.2439
      8 O          61.0833   92.7480   -1.8630 O.2     1  UNL1       -0.2731
      9 C          63.1857   95.6953   -3.4888 C.3     1  UNL1        0.1108
     10 C          64.2202   95.8952   -4.5564 C.3     1  UNL1        0.0939
     11 N          60.1452   96.2558   -1.9732 N.am    1  UNL1       -0.2978
     12 C          58.6923   95.8955   -2.0694 C.2     1  UNL1        0.2257
     13 O          57.7208   96.8559   -2.6890 O.2     1  UNL1       -0.2748
     14 H          60.4611   97.1226   -2.3167 H       1  UNL1        0.1498
     15 C          58.2109   94.5747   -1.5461 C.3     1  UNL1        0.0884
     16 C          57.8998   93.4699   -0.5804 C.3     1  UNL1        0.0135
     17 C          58.5343   94.7377   -0.0905 C.3     1  UNL1        0.0135
     18 C          57.7202   93.9530   -2.8199 C.ar    1  UNL1       -0.0040
     19 C          58.6958   93.5788   -3.8962 C.ar    1  UNL1       -0.0021
     20 C          58.2051   92.9570   -5.1701 C.ar    1  UNL1        0.0111
     21 C          56.7390   92.7095   -5.3676 C.ar    1  UNL1        0.0585
     22 CL         56.2483   92.0877   -6.6416 Cl      1  UNL1       -0.0822
     23 C          55.7634   93.0837   -4.2915 C.ar    1  UNL1        0.0225
     24 C          56.2541   93.7054   -3.0176 C.ar    1  UNL1        0.0550
     25 CL         55.2785   94.0796   -1.9414 Cl      1  UNL1       -0.0825
     26 C          61.5875   95.5087    0.0545 C.3     1  UNL1        0.0553
     27 C          62.0676   94.3445    0.8693 C.ar    1  UNL1       -0.0200
     28 C          61.1025   93.5799    1.7260 C.ar    1  UNL1       -0.0037
     29 C          61.5826   92.4155    2.5409 C.ar    1  UNL1        0.0064
     30 C          63.0278   92.0159    2.4990 C.ar    1  UNL1        0.0345
     31 BR         63.5079   90.8516    3.3138 Br      1  UNL1       -0.0490
     32 C          63.9929   92.7805    1.6423 C.ar    1  UNL1        0.0064
     33 C          63.5128   93.9448    0.8274 C.ar    1  UNL1       -0.0037
@<TRIPOS>BOND
     1     2     3    1
     2     3     4    1
     3     4     5    1
     4     5     6    1
     5     6     7   am
     6     7     8    2
     7     7     1    1
     8     1    26    1
     9    26    27    1
    10    27    28   ar
    11    28    29   ar
    12    29    30   ar
    13    30    31    1
    14    30    32   ar
    15    32    33   ar
    16     1    11    1
    17    11    12   am
    18    12    13    2
    19    12    15    1
    20    15    18    1
    21    18    19   ar
    22    19    20   ar
    23    20    21   ar
    24    21    22    1
    25    21    23   ar
    26    23    24   ar
    27    24    25    1
    28    15    16    1
    29    16    17    1
    30     6     9    1
    31     9    10    1
    32    10     3    1
    33    33    27   ar
    34    17    15    1
    35    24    18   ar
    36    11    14    1
@<TRIPOS>MOLECULE
*****
 33 36 0 0 0
SMALL
GASTEIGER

@<TRIPOS>ATOM
      1 C          63.0673   89.3095   12.1665 C.3     1  UNL1        0.1532
      2 C          67.4383   93.1665   15.8092 C.3     1  UNL1        0.0897
      3 N          66.3153   92.3495   15.2420 N.3     1  UNL1       -0.2686
      4 C          65.0717   92.1217   16.0491 C.3     1  UNL1        0.0939
      5 C          63.9487   91.3047   15.4819 C.3     1  UNL1        0.1108
      6 N          64.0695   90.7156   14.1078 N.am    1  UNL1       -0.2753
      7 C          62.9466   89.8986   13.5407 C.2     1  UNL1        0.2439
      8 O          61.7029   89.6708   14.3477 O.2     1  UNL1       -0.2731
      9 C          65.3132   90.9434   13.3008 C.3     1  UNL1        0.1108
     10 C          66.4361   91.7604   13.8679 C.3     1  UNL1        0.0939
     11 N          62.6323   90.1023   10.9697 N.am    1  UNL1       -0.2978
     12 C          61.3933   89.7105   10.2205 C.2     1  UNL1        0.2257
     13 O          60.9582   90.5033    9.0237 O.2     1  UNL1       -0.2748
     14 H          63.1600   90.8798   10.6759 H       1  UNL1        0.1498
     15 C          60.5892   88.5259   10.6681 C.3     1  UNL1        0.0884
     16 C          59.6492   87.6865   11.4815 C.3     1  UNL1        0.0135
     17 C          59.9184   89.1081   11.8768 C.3     1  UNL1        0.0135
     18 C          60.9808   87.5323    9.6149 C.ar    1  UNL1       -0.0040
     19 C          62.2943   86.8144    9.7124 C.ar    1  UNL1       -0.0021
     20 C          62.6859   85.8208    8.6592 C.ar    1  UNL1        0.0111
     21 C          61.7641   85.5450    7.5085 C.ar    1  UNL1        0.0585
     22 CL         62.1558   84.5513    6.4552 Cl      1  UNL1       -0.0822
     23 C          60.4507   86.2628    7.4109 C.ar    1  UNL1        0.0225
     24 C          60.0591   87.2565    8.4641 C.ar    1  UNL1        0.0550
     25 CL         58.7456   87.9744    8.3666 Cl      1  UNL1       -0.0825
     26 C          63.6231   87.9276   11.9891 C.3     1  UNL1        0.0553
     27 C          63.4972   86.9210   13.0941 C.ar    1  UNL1       -0.0200
     28 C          64.1686   87.1669   14.4126 C.ar    1  UNL1       -0.0037
     29 C          64.0427   86.1603   15.5176 C.ar    1  UNL1        0.0064
     30 C          63.2454   84.9078   15.3040 C.ar    1  UNL1        0.0345
     31 BR         63.1195   83.9013   16.4089 Br      1  UNL1       -0.0490
     32 C          62.5739   84.6620   13.9853 C.ar    1  UNL1        0.0064
     33 C          62.6998   85.6686   12.8804 C.ar    1  UNL1       -0.0037
@<TRIPOS>BOND
     1     2     3    1
     2     3     4    1
     3     4     5    1
     4     5     6    1
     5     6     7   am
     6     7     8    2
     7     7     1    1
     8     1    26    1
     9    26    27    1
    10    27    28   ar
    11    28    29   ar
    12    29    30   ar
    13    30    31    1
    14    30    32   ar
    15    32    33   ar
    16     1    11    1
    17    11    12   am
    18    12    13    2
    19    12    15    1
    20    15    18    1
    21    18    19   ar
    22    19    20   ar
    23    20    21   ar
    24    21    22    1
    25    21    23   ar
    26    23    24   ar
    27    24    25    1
    28    15    16    1
    29    16    17    1
    30     6     9    1
    31     9    10    1
    32    10     3    1
    33    33    27   ar
    34    17    15    1
    35    24    18   ar
    36    11    14    1
@<TRIPOS>MOLECULE
*****
 33 36 0 0 0
SMALL
GASTEIGER

@<TRIPOS>ATOM
      1 C          58.7434   93.6903   -1.5926 C.3     1  UNL1        0.1532
      2 C          55.4074   92.3250   -7.4455 C.3     1  UNL1        0.0897
      3 N          55.9823   92.8630   -6.1689 N.3     1  UNL1       -0.2686
      4 C          55.5211   94.1881   -5.6384 C.3     1  UNL1        0.0939
      5 C          56.0960   94.7262   -4.3617 C.3     1  UNL1        0.1108
      6 N          57.1322   93.9392   -3.6155 N.am    1  UNL1       -0.2753
      7 C          57.7072   94.4773   -2.3388 C.2     1  UNL1        0.2439
      8 O          57.2459   95.8023   -1.8084 O.2     1  UNL1       -0.2731
      9 C          57.5935   92.6142   -4.1460 C.3     1  UNL1        0.1108
     10 C          57.0185   92.0761   -5.4226 C.3     1  UNL1        0.0939
     11 N          59.8918   93.0710   -2.3328 N.am    1  UNL1       -0.2978
     12 C          61.0567   93.9171   -2.7533 C.2     1  UNL1        0.2257
     13 O          62.2051   93.2978   -3.4934 O.2     1  UNL1       -0.2748
     14 H          59.8808   92.1092   -2.5426 H       1  UNL1        0.1498
     15 C          61.0734   95.3826   -2.4336 C.3     1  UNL1        0.0884
     16 C          60.7945   96.8523   -2.5429 C.3     1  UNL1        0.0135
     17 C          60.2281   95.9040   -3.5577 C.3     1  UNL1        0.0135
     18 C          61.9246   95.3701   -1.1986 C.ar    1  UNL1       -0.0040
     19 C          63.2796   94.7272   -1.2280 C.ar    1  UNL1       -0.0021
     20 C          64.1307   94.7147    0.0070 C.ar    1  UNL1        0.0111
     21 C          63.6270   95.3452    1.2714 C.ar    1  UNL1        0.0585
     22 CL         64.4783   95.3328    2.5065 Cl      1  UNL1       -0.0822
     23 C          62.2722   95.9881    1.3009 C.ar    1  UNL1        0.0225
     24 C          61.4210   96.0006    0.0659 C.ar    1  UNL1        0.0550
     25 CL         60.0660   96.6435    0.0953 Cl      1  UNL1       -0.0825
     26 C          58.6313   93.5226   -0.1062 C.3     1  UNL1        0.0553
     27 C          59.8030   93.0168    0.6819 C.ar    1  UNL1       -0.0200
     28 C          59.9177   93.3355    2.1431 C.ar    1  UNL1       -0.0037
     29 C          61.0895   92.8297    2.9314 C.ar    1  UNL1        0.0064
     30 C          62.1464   92.0052    2.2583 C.ar    1  UNL1        0.0345
     31 BR         63.3181   91.4994    3.0465 Br      1  UNL1       -0.0490
     32 C          62.0317   91.6865    0.7970 C.ar    1  UNL1        0.0064
     33 C          60.8600   92.1923    0.0088 C.ar    1  UNL1       -0.0037
@<TRIPOS>BOND
     1     2     3    1
     2     3     4    1
     3     4     5    1
     4     5     6    1
     5     6     7   am
     6     7     8    2
     7     7     1    1
     8     1    26    1
     9    26    27    1
    10    27    28   ar
    11    28    29   ar
    12    29    30   ar
    13    30    31    1
    14    30    32   ar
    15    32    33   ar
    16     1    11    1
    17    11    12   am
    18    12    13    2
    19    12    15    1
    20    15    18    1
    21    18    19   ar
    22    19    20   ar
    23    20    21   ar
    24    21    22    1
    25    21    23   ar
    26    23    24   ar
    27    24    25    1
    28    15    16    1
    29    16    17    1
    30     6     9    1
    31     9    10    1
    32    10     3    1
    33    33    27   ar
    34    17    15    1
    35    24    18   ar
    36    11    14    1
@<TRIPOS>MOLECULE
*****
 33 36 0 0 0
SMALL
GASTEIGER

@<TRIPOS>ATOM
      1 C          62.5082   85.8393   12.3534 C.3     1  UNL1        0.1532
      2 C          59.4194   89.4639    7.3965 C.3     1  UNL1        0.0897
      3 N          60.0384   88.4489    8.3112 N.3     1  UNL1       -0.2686
      4 C          60.0447   86.9988    7.9278 C.3     1  UNL1        0.0939
      5 C          60.6638   85.9839    8.8425 C.3     1  UNL1        0.1108
      6 N          61.2764   86.4190   10.1406 N.am    1  UNL1       -0.2753
      7 C          61.8955   85.4041   11.0553 C.2     1  UNL1        0.2439
      8 O          61.9018   83.9540   10.6719 O.2     1  UNL1       -0.2731
      9 C          61.2701   87.8692   10.5240 C.3     1  UNL1        0.1108
     10 C          60.6511   88.8841    9.6093 C.3     1  UNL1        0.0939
     11 N          61.9631   85.3207   13.6512 N.am    1  UNL1       -0.2978
     12 C          62.7662   84.3531   14.4688 C.2     1  UNL1        0.2257
     13 O          62.2211   83.8345   15.7666 O.2     1  UNL1       -0.2748
     14 H          61.0782   85.6156   13.9663 H       1  UNL1        0.1498
     15 C          64.1144   83.9038   13.9887 C.3     1  UNL1        0.0884
     16 C          65.6005   83.8725   13.7875 C.3     1  UNL1        0.0135
     17 C          64.9797   84.9511   14.6248 C.3     1  UNL1        0.0135
     18 C          63.7175   82.7005   13.1859 C.ar    1  UNL1       -0.0040
     19 C          62.8940   81.6167   13.8163 C.ar    1  UNL1       -0.0021
     20 C          62.4970   80.4134   13.0134 C.ar    1  UNL1        0.0111
     21 C          62.9235   80.2940   11.5804 C.ar    1  UNL1        0.0585
     22 CL         62.5265   79.0906   10.7775 Cl      1  UNL1       -0.0822
     23 C          63.7469   81.3777   10.9500 C.ar    1  UNL1        0.0225
     24 C          64.1439   82.5810   11.7528 C.ar    1  UNL1        0.0550
     25 CL         64.9674   83.6648   11.1225 Cl      1  UNL1       -0.0825
     26 C          63.6660   86.7929   12.3539 C.3     1  UNL1        0.0553
     27 C          63.6907   87.9420   13.3177 C.ar    1  UNL1       -0.0200
     28 C          63.9134   87.6901   14.7795 C.ar    1  UNL1       -0.0037
     29 C          63.9382   88.8392   15.7434 C.ar    1  UNL1        0.0064
     30 C          63.7403   90.2402   15.2453 C.ar    1  UNL1        0.0345
     31 BR         63.7651   91.3893   16.2091 Br      1  UNL1       -0.0490
     32 C          63.5176   90.4921   13.7835 C.ar    1  UNL1        0.0064
     33 C          63.4929   89.3430   12.8197 C.ar    1  UNL1       -0.0037
@<TRIPOS>BOND
     1     2     3    1
     2     3     4    1
     3     4     5    1
     4     5     6    1
     5     6     7   am
     6     7     8    2
     7     7     1    1
     8     1    26    1
     9    26    27    1
    10    27    28   ar
    11    28    29   ar
    12    29    30   ar
    13    30    31    1
    14    30    32   ar
    15    32    33   ar
    16     1    11    1
    17    11    12   am
    18    12    13    2
    19    12    15    1
    20    15    18    1
    21    18    19   ar
    22    19    20   ar
    23    20    21   ar
    24    21    22    1
    25    21    23   ar
    26    23    24   ar
    27    24    25    1
    28    15    16    1
    29    16    17    1
    30     6     9    1
    31     9    10    1
    32    10     3    1
    33    33    27   ar
    34    17    15    1
    35    24    18   ar
    36    11    14    1
