@<TRIPOS>MOLECULE
*****
 32 35 0 0 0
SMALL
GASTEIGER

@<TRIPOS>ATOM
      1 N          63.1737   84.1919   13.4991 N.3     1  UNL1       -0.2679
      2 C          63.2755   84.2289   12.0030 C.3     1  UNL1        0.0978
      3 C          64.1510   83.2441   11.2862 C.3     1  UNL1        0.0224
      4 C          64.2528   83.2811    9.7902 C.3     1  UNL1        0.0065
      5 C          63.4792   84.3029    9.0108 C.3     1  UNL1        0.0277
      6 C          62.6038   85.2877    9.7276 C.ar    1  UNL1       -0.0073
      7 C          61.8301   86.3096    8.9482 C.ar    1  UNL1       -0.0015
      8 C          60.9547   87.2944    9.6650 C.ar    1  UNL1        0.0203
      9 C          60.8529   87.2574   11.1611 C.ar    1  UNL1        0.0985
     10 N          61.6265   86.2356   11.9404 N.ar    1  UNL1       -0.2471
     11 C          62.5020   85.2507   11.2237 C.ar    1  UNL1        0.0695
     12 C          62.0021   83.5231   14.1547 C.3     1  UNL1        0.0725
     13 C          62.1745   82.1882   14.8169 C.3     1  UNL1        0.0187
     14 C          63.7288   81.0289   13.9566 C.3     1  UNL1        0.0014
     15 C          62.2317   80.9406   13.9861 C.3     1  UNL1        0.0156
     16 C          60.7346   80.8523   14.0156 C.3     1  UNL1        0.0014
     17 C          62.2889   79.6931   13.1553 C.3     1  UNL1        0.0651
     18 N          62.7060   79.7687   11.7164 N.3     1  UNL1       -0.3211
     19 H          62.0097   80.2941   11.1877 H       1  UNL1        0.1189
     20 H          62.7826   78.8259   11.3346 H       1  UNL1        0.1189
     21 C          64.2435   84.8237   14.3395 C.3     1  UNL1        0.0886
     22 C          64.0095   86.1660   14.9669 C.3     1  UNL1        0.0748
     23 C          64.5167   87.4070   14.2941 C.3     1  UNL1        0.0432
     24 C          64.2827   88.7493   14.9215 C.ar    1  UNL1       -0.0234
     25 C          64.7899   89.9903   14.2487 C.ar    1  UNL1       -0.0045
     26 C          64.5559   91.3325   14.8761 C.ar    1  UNL1       -0.0003
     27 C          63.8147   91.4337   16.1762 C.ar    1  UNL1       -0.0003
     28 C          63.3075   90.1928   16.8490 C.ar    1  UNL1       -0.0032
     29 C          63.5415   88.8505   16.2216 C.ar    1  UNL1       -0.0103
     30 C          63.0344   87.6095   16.8944 C.3     1  UNL1        0.0953
     31 N          63.2683   86.2672   16.2670 N.3     1  UNL1       -0.2934
     32 H          62.3505   85.8487   16.1161 H       1  UNL1        0.1236
@<TRIPOS>BOND
     1    14    15    1
     2    15    16    1
     3    15    17    1
     4    17    18    1
     5    15    13    1
     6    13    12    1
     7    12     1    1
     8     1    21    1
     9    22    21    1
    10    22    23    1
    11    23    24    1
    12    24    25   ar
    13    25    26   ar
    14    26    27   ar
    15    27    28   ar
    16    28    29   ar
    17    29    30    1
    18    30    31    1
    19     2     1    1
    20     2     3    1
    21     3     4    1
    22     4     5    1
    23     5     6    1
    24     6     7   ar
    25     7     8   ar
    26     8     9   ar
    27     9    10   ar
    28    10    11   ar
    29    31    22    1
    30    11     2    1
    31    29    24   ar
    32    11     6   ar
    33    18    19    1
    34    18    20    1
    35    31    32    1
@<TRIPOS>MOLECULE
*****
 32 35 0 0 0
SMALL
GASTEIGER

@<TRIPOS>ATOM
      1 N          62.5282   87.2872   11.8476 N.3     1  UNL1       -0.2679
      2 C          62.8506   88.7244   11.5638 C.3     1  UNL1        0.0978
      3 C          62.4521   89.3381   10.2544 C.3     1  UNL1        0.0224
      4 C          62.7746   90.7752    9.9707 C.3     1  UNL1        0.0065
      5 C          63.4956   91.5987   10.9963 C.3     1  UNL1        0.0277
      6 C          63.8942   90.9851   12.3057 C.ar    1  UNL1       -0.0073
      7 C          64.6152   91.8086   13.3313 C.ar    1  UNL1       -0.0015
      8 C          65.0138   91.1949   14.6407 C.ar    1  UNL1        0.0203
      9 C          64.6913   89.7577   14.9245 C.ar    1  UNL1        0.0985
     10 N          63.9703   88.9342   13.8989 N.ar    1  UNL1       -0.2471
     11 C          63.5717   89.5479   12.5894 C.ar    1  UNL1        0.0695
     12 C          61.3268   86.6492   11.2155 C.3     1  UNL1        0.0725
     13 C          61.4555   85.9545    9.8922 C.3     1  UNL1        0.0187
     14 C          59.7490   87.1933    9.6617 C.3     1  UNL1        0.0014
     15 C          60.6064   86.3854    8.7332 C.3     1  UNL1        0.0156
     16 C          61.4638   85.5776    7.8047 C.3     1  UNL1        0.0014
     17 C          59.7573   86.8163    7.5742 C.3     1  UNL1        0.0651
     18 N          58.2624   86.7366    7.6691 N.3     1  UNL1       -0.3211
     19 H          57.9776   85.7594    7.7354 H       1  UNL1        0.1189
     20 H          57.8461   87.1565    6.8380 H       1  UNL1        0.1189
     21 C          63.4070   86.4881   12.7635 C.3     1  UNL1        0.0886
     22 C          63.0301   85.0824   13.1270 C.3     1  UNL1        0.0748
     23 C          63.2582   83.9680   12.1493 C.3     1  UNL1        0.0432
     24 C          62.8812   82.5623   12.5128 C.ar    1  UNL1       -0.0234
     25 C          63.1093   81.4479   11.5351 C.ar    1  UNL1       -0.0045
     26 C          62.7324   80.0424   11.8986 C.ar    1  UNL1       -0.0003
     27 C          62.1274   79.7512   13.2399 C.ar    1  UNL1       -0.0003
     28 C          61.8993   80.8656   14.2177 C.ar    1  UNL1       -0.0032
     29 C          62.2762   82.2711   13.8541 C.ar    1  UNL1       -0.0103
     30 C          62.0481   83.3856   14.8319 C.3     1  UNL1        0.0953
     31 N          62.4250   84.7912   14.4683 N.3     1  UNL1       -0.2934
     32 H          63.0961   85.1066   15.1688 H       1  UNL1        0.1236
@<TRIPOS>BOND
     1    14    15    1
     2    15    16    1
     3    15    17    1
     4    17    18    1
     5    15    13    1
     6    13    12    1
     7    12     1    1
     8     1    21    1
     9    22    21    1
    10    22    23    1
    11    23    24    1
    12    24    25   ar
    13    25    26   ar
    14    26    27   ar
    15    27    28   ar
    16    28    29   ar
    17    29    30    1
    18    30    31    1
    19     2     1    1
    20     2     3    1
    21     3     4    1
    22     4     5    1
    23     5     6    1
    24     6     7   ar
    25     7     8   ar
    26     8     9   ar
    27     9    10   ar
    28    10    11   ar
    29    31    22    1
    30    11     2    1
    31    29    24   ar
    32    11     6   ar
    33    18    19    1
    34    18    20    1
    35    31    32    1
@<TRIPOS>MOLECULE
*****
 32 35 0 0 0
SMALL
GASTEIGER

@<TRIPOS>ATOM
      1 N          61.7009   87.6888   11.2063 N.3     1  UNL1       -0.2679
      2 C          62.3003   86.4583   10.5925 C.3     1  UNL1        0.0978
      3 C          62.5784   86.4144    9.1192 C.3     1  UNL1        0.0224
      4 C          63.1777   85.1839    8.5055 C.3     1  UNL1        0.0065
      5 C          63.4990   83.9974    9.3650 C.3     1  UNL1        0.0277
      6 C          63.2209   84.0413   10.8383 C.ar    1  UNL1       -0.0073
      7 C          63.5421   82.8547   11.6979 C.ar    1  UNL1       -0.0015
      8 C          63.2640   82.8987   13.1712 C.ar    1  UNL1        0.0203
      9 C          62.6647   84.1291   13.7850 C.ar    1  UNL1        0.0985
     10 N          62.3434   85.3157   12.9255 N.ar    1  UNL1       -0.2471
     11 C          62.6215   85.2718   11.4521 C.ar    1  UNL1        0.0695
     12 C          60.3505   88.1670   10.7618 C.3     1  UNL1        0.0725
     13 C          59.6116   87.4309    9.6838 C.3     1  UNL1        0.0187
     14 C          58.9835   86.7179    7.7872 C.3     1  UNL1        0.0014
     15 C          59.4996   88.0252    8.3111 C.3     1  UNL1        0.0156
     16 C          60.0158   89.3325    8.8351 C.3     1  UNL1        0.0014
     17 C          59.3877   88.6195    6.9385 C.3     1  UNL1        0.0651
     18 N          59.6669   90.0782    6.7277 N.3     1  UNL1       -0.3211
     19 H          58.9610   90.6329    7.2119 H       1  UNL1        0.1189
     20 H          59.6394   90.2889    5.7301 H       1  UNL1        0.1189
     21 C          62.4520   88.4411   12.2645 C.3     1  UNL1        0.0886
     22 C          63.1836   89.7023   11.9119 C.3     1  UNL1        0.0748
     23 C          64.0754   90.3597   12.9230 C.3     1  UNL1        0.0432
     24 C          64.8070   91.6209   12.5703 C.ar    1  UNL1       -0.0234
     25 C          65.6988   92.2783   13.5814 C.ar    1  UNL1       -0.0045
     26 C          66.4304   93.5394   13.2287 C.ar    1  UNL1       -0.0003
     27 C          66.2701   94.1431   11.8649 C.ar    1  UNL1       -0.0003
     28 C          65.3783   93.4856   10.8538 C.ar    1  UNL1       -0.0032
     29 C          64.6467   92.2245   11.2065 C.ar    1  UNL1       -0.0103
     30 C          63.7549   91.5670   10.1954 C.3     1  UNL1        0.0953
     31 N          63.0233   90.3059   10.5481 N.3     1  UNL1       -0.2934
     32 H          63.3173   89.5972    9.8760 H       1  UNL1        0.1236
@<TRIPOS>BOND
     1    14    15    1
     2    15    16    1
     3    15    17    1
     4    17    18    1
     5    15    13    1
     6    13    12    1
     7    12     1    1
     8     1    21    1
     9    22    21    1
    10    22    23    1
    11    23    24    1
    12    24    25   ar
    13    25    26   ar
    14    26    27   ar
    15    27    28   ar
    16    28    29   ar
    17    29    30    1
    18    30    31    1
    19     2     1    1
    20     2     3    1
    21     3     4    1
    22     4     5    1
    23     5     6    1
    24     6     7   ar
    25     7     8   ar
    26     8     9   ar
    27     9    10   ar
    28    10    11   ar
    29    31    22    1
    30    11     2    1
    31    29    24   ar
    32    11     6   ar
    33    18    19    1
    34    18    20    1
    35    31    32    1
@<TRIPOS>MOLECULE
*****
 32 35 0 0 0
SMALL
GASTEIGER

@<TRIPOS>ATOM
      1 N          63.4726   90.0179   12.9592 N.3     1  UNL1       -0.2679
      2 C          64.2872   91.1708   12.4521 C.3     1  UNL1        0.0978
      3 C          64.2297   91.5494   11.0019 C.3     1  UNL1        0.0224
      4 C          65.0443   92.7023   10.4948 C.3     1  UNL1        0.0065
      5 C          65.9164   93.4768   11.4380 C.3     1  UNL1        0.0277
      6 C          65.9739   93.0982   12.8883 C.ar    1  UNL1       -0.0073
      7 C          66.8460   93.8726   13.8316 C.ar    1  UNL1       -0.0015
      8 C          66.9035   93.4941   15.2819 C.ar    1  UNL1        0.0203
      9 C          66.0889   92.3411   15.7889 C.ar    1  UNL1        0.0985
     10 N          65.2168   91.5667   14.8457 N.ar    1  UNL1       -0.2471
     11 C          65.1593   91.9452   13.3953 C.ar    1  UNL1        0.0695
     12 C          64.1239   88.9409   13.7752 C.3     1  UNL1        0.0725
     13 C          63.8056   88.8101   15.2353 C.3     1  UNL1        0.0187
     14 C          64.3458   86.8403   14.6625 C.3     1  UNL1        0.0014
     15 C          63.6701   87.4506   15.8545 C.3     1  UNL1        0.0156
     16 C          62.9943   88.0610   17.0464 C.3     1  UNL1        0.0014
     17 C          63.5345   86.0912   16.4737 C.3     1  UNL1        0.0651
     18 N          62.1739   85.5386   16.7795 N.3     1  UNL1       -0.3211
     19 H          61.7337   86.1021   17.5068 H       1  UNL1        0.1189
     20 H          62.2630   84.5753   17.1029 H       1  UNL1        0.1189
     21 C          62.0068   89.9419   12.6502 C.3     1  UNL1        0.0886
     22 C          61.5302   89.1594   11.4625 C.3     1  UNL1        0.0748
     23 C          62.3619   88.0336   10.9232 C.3     1  UNL1        0.0432
     24 C          61.8853   87.2511    9.7355 C.ar    1  UNL1       -0.0234
     25 C          62.7169   86.1253    9.1962 C.ar    1  UNL1       -0.0045
     26 C          62.2403   85.3429    8.0086 C.ar    1  UNL1       -0.0003
     27 C          60.9320   85.6863    7.3601 C.ar    1  UNL1       -0.0003
     28 C          60.1004   86.8121    7.8994 C.ar    1  UNL1       -0.0032
     29 C          60.5770   87.5945    9.0871 C.ar    1  UNL1       -0.0103
     30 C          59.7453   88.7204    9.6264 C.3     1  UNL1        0.0953
     31 N          60.2219   89.5028   10.8140 N.3     1  UNL1       -0.2934
     32 H          59.5042   89.4127   11.5332 H       1  UNL1        0.1236
@<TRIPOS>BOND
     1    14    15    1
     2    15    16    1
     3    15    17    1
     4    17    18    1
     5    15    13    1
     6    13    12    1
     7    12     1    1
     8     1    21    1
     9    22    21    1
    10    22    23    1
    11    23    24    1
    12    24    25   ar
    13    25    26   ar
    14    26    27   ar
    15    27    28   ar
    16    28    29   ar
    17    29    30    1
    18    30    31    1
    19     2     1    1
    20     2     3    1
    21     3     4    1
    22     4     5    1
    23     5     6    1
    24     6     7   ar
    25     7     8   ar
    26     8     9   ar
    27     9    10   ar
    28    10    11   ar
    29    31    22    1
    30    11     2    1
    31    29    24   ar
    32    11     6   ar
    33    18    19    1
    34    18    20    1
    35    31    32    1
@<TRIPOS>MOLECULE
*****
 32 35 0 0 0
SMALL
GASTEIGER

@<TRIPOS>ATOM
      1 N          63.9737   90.1594   13.7375 N.3     1  UNL1       -0.2679
      2 C          64.8966   91.3223   13.9524 C.3     1  UNL1        0.0978
      3 C          65.4555   91.5939   15.3176 C.3     1  UNL1        0.0224
      4 C          66.3783   92.7567   15.5325 C.3     1  UNL1        0.0065
      5 C          66.7422   93.6480   14.3822 C.3     1  UNL1        0.0277
      6 C          66.1833   93.3764   13.0170 C.ar    1  UNL1       -0.0073
      7 C          66.5472   94.2676   11.8667 C.ar    1  UNL1       -0.0015
      8 C          65.9883   93.9960   10.5015 C.ar    1  UNL1        0.0203
      9 C          65.0655   92.8332   10.2865 C.ar    1  UNL1        0.0985
     10 N          64.7016   91.9419   11.4368 N.ar    1  UNL1       -0.2471
     11 C          65.2605   92.2135   12.8021 C.ar    1  UNL1        0.0695
     12 C          64.3223   88.8120   14.2968 C.3     1  UNL1        0.0725
     13 C          63.7746   88.3875   15.6272 C.3     1  UNL1        0.0187
     14 C          62.8875   87.2611   17.1906 C.3     1  UNL1        0.0014
     15 C          63.7161   86.9319   15.9844 C.3     1  UNL1        0.0156
     16 C          64.5448   86.6027   14.7782 C.3     1  UNL1        0.0014
     17 C          63.6577   85.4763   16.3416 C.3     1  UNL1        0.0651
     18 N          64.3884   84.4686   15.5044 N.3     1  UNL1       -0.3211
     19 H          63.9714   84.4330   14.5742 H       1  UNL1        0.1189
     20 H          64.3214   83.5499   15.9425 H       1  UNL1        0.1189
     21 C          62.7024   90.3440   12.9633 C.3     1  UNL1        0.0886
     22 C          62.2706   89.3048   11.9714 C.3     1  UNL1        0.0748
     23 C          61.3665   89.6819   10.8355 C.3     1  UNL1        0.0432
     24 C          60.9347   88.6427    9.8437 C.ar    1  UNL1       -0.0234
     25 C          60.0306   89.0199    8.7078 C.ar    1  UNL1       -0.0045
     26 C          59.5989   87.9807    7.7160 C.ar    1  UNL1       -0.0003
     27 C          60.0713   86.5644    7.8601 C.ar    1  UNL1       -0.0003
     28 C          60.9755   86.1872    8.9960 C.ar    1  UNL1       -0.0032
     29 C          61.4072   87.2264    9.9877 C.ar    1  UNL1       -0.0103
     30 C          62.3114   86.8492   11.1237 C.3     1  UNL1        0.0953
     31 N          62.7430   87.8884   12.1155 N.3     1  UNL1       -0.2934
     32 H          63.7624   87.9140   12.0903 H       1  UNL1        0.1236
@<TRIPOS>BOND
     1    14    15    1
     2    15    16    1
     3    15    17    1
     4    17    18    1
     5    15    13    1
     6    13    12    1
     7    12     1    1
     8     1    21    1
     9    22    21    1
    10    22    23    1
    11    23    24    1
    12    24    25   ar
    13    25    26   ar
    14    26    27   ar
    15    27    28   ar
    16    28    29   ar
    17    29    30    1
    18    30    31    1
    19     2     1    1
    20     2     3    1
    21     3     4    1
    22     4     5    1
    23     5     6    1
    24     6     7   ar
    25     7     8   ar
    26     8     9   ar
    27     9    10   ar
    28    10    11   ar
    29    31    22    1
    30    11     2    1
    31    29    24   ar
    32    11     6   ar
    33    18    19    1
    34    18    20    1
    35    31    32    1
@<TRIPOS>MOLECULE
*****
 32 35 0 0 0
SMALL
GASTEIGER

@<TRIPOS>ATOM
      1 N          62.4591   87.1688   11.7840 N.3     1  UNL1       -0.2679
      2 C          63.2326   86.3373   12.7639 C.3     1  UNL1        0.0978
      3 C          63.9610   86.9973   13.8970 C.3     1  UNL1        0.0224
      4 C          64.7345   86.1658   14.8770 C.3     1  UNL1        0.0065
      5 C          64.7796   84.6744   14.7239 C.3     1  UNL1        0.0277
      6 C          64.0512   84.0144   13.5908 C.ar    1  UNL1       -0.0073
      7 C          64.0963   82.5229   13.4377 C.ar    1  UNL1       -0.0015
      8 C          63.3679   81.8629   12.3046 C.ar    1  UNL1        0.0203
      9 C          62.5944   82.6944   11.3247 C.ar    1  UNL1        0.0985
     10 N          62.5493   84.1858   11.4778 N.ar    1  UNL1       -0.2471
     11 C          63.2777   84.8459   12.6109 C.ar    1  UNL1        0.0695
     12 C          62.1604   86.6315   10.4158 C.3     1  UNL1        0.0725
     13 C          61.9006   87.5756    9.2794 C.3     1  UNL1        0.0187
     14 C          60.4458   89.0837    8.9491 C.3     1  UNL1        0.0014
     15 C          60.5463   87.6202    8.6361 C.3     1  UNL1        0.0156
     16 C          60.6468   86.1567    8.3231 C.3     1  UNL1        0.0014
     17 C          59.1921   87.6648    7.9927 C.3     1  UNL1        0.0651
     18 N          58.4995   86.3894    7.6135 N.3     1  UNL1       -0.3211
     19 H          59.0249   85.9243    6.8732 H       1  UNL1        0.1189
     20 H          57.5580   86.5993    7.2819 H       1  UNL1        0.1189
     21 C          61.9842   88.5376   12.1722 C.3     1  UNL1        0.0886
     22 C          62.9355   89.6972   12.1452 C.3     1  UNL1        0.0748
     23 C          63.6996   90.0694   13.3811 C.3     1  UNL1        0.0432
     24 C          64.6508   91.2289   13.3541 C.ar    1  UNL1       -0.0234
     25 C          65.4150   91.6011   14.5900 C.ar    1  UNL1       -0.0045
     26 C          66.3661   92.7606   14.5629 C.ar    1  UNL1       -0.0003
     27 C          66.5532   93.5479   13.2999 C.ar    1  UNL1       -0.0003
     28 C          65.7891   93.1757   12.0640 C.ar    1  UNL1       -0.0032
     29 C          64.8379   92.0162   12.0911 C.ar    1  UNL1       -0.0103
     30 C          64.0738   91.6440   10.8551 C.3     1  UNL1        0.0953
     31 N          63.1226   90.4845   10.8822 N.3     1  UNL1       -0.2934
     32 H          63.4394   89.8270   10.1696 H       1  UNL1        0.1236
@<TRIPOS>BOND
     1    14    15    1
     2    15    16    1
     3    15    17    1
     4    17    18    1
     5    15    13    1
     6    13    12    1
     7    12     1    1
     8     1    21    1
     9    22    21    1
    10    22    23    1
    11    23    24    1
    12    24    25   ar
    13    25    26   ar
    14    26    27   ar
    15    27    28   ar
    16    28    29   ar
    17    29    30    1
    18    30    31    1
    19     2     1    1
    20     2     3    1
    21     3     4    1
    22     4     5    1
    23     5     6    1
    24     6     7   ar
    25     7     8   ar
    26     8     9   ar
    27     9    10   ar
    28    10    11   ar
    29    31    22    1
    30    11     2    1
    31    29    24   ar
    32    11     6   ar
    33    18    19    1
    34    18    20    1
    35    31    32    1
@<TRIPOS>MOLECULE
*****
 32 35 0 0 0
SMALL
GASTEIGER

@<TRIPOS>ATOM
      1 N          61.8322   87.7413   11.0755 N.3     1  UNL1       -0.2679
      2 C          60.9755   87.3745    9.9001 C.3     1  UNL1        0.0978
      3 C          59.6063   87.9697    9.7551 C.3     1  UNL1        0.0224
      4 C          58.7496   87.6029    8.5798 C.3     1  UNL1        0.0065
      5 C          59.2621   86.6409    7.5494 C.3     1  UNL1        0.0277
      6 C          60.6312   86.0456    7.6943 C.ar    1  UNL1       -0.0073
      7 C          61.1438   85.0835    6.6639 C.ar    1  UNL1       -0.0015
      8 C          62.5129   84.4883    6.8088 C.ar    1  UNL1        0.0203
      9 C          63.3696   84.8551    7.9842 C.ar    1  UNL1        0.0985
     10 N          62.8572   85.8172    9.0146 N.ar    1  UNL1       -0.2471
     11 C          61.4879   86.4125    8.8697 C.ar    1  UNL1        0.0695
     12 C          62.8239   86.7552   11.6175 C.3     1  UNL1        0.0725
     13 C          62.3455   85.5243   12.3291 C.3     1  UNL1        0.0187
     14 C          63.8851   85.3279   13.7750 C.3     1  UNL1        0.0014
     15 C          63.3200   84.4464   12.7009 C.3     1  UNL1        0.0156
     16 C          62.7549   83.5650   11.6268 C.3     1  UNL1        0.0014
     17 C          64.2946   83.3685   13.0727 C.3     1  UNL1        0.0651
     18 N          65.0084   82.6002   12.0003 N.3     1  UNL1       -0.3211
     19 H          64.3338   82.0459   11.4729 H       1  UNL1        0.1189
     20 H          65.6976   81.9811   12.4269 H       1  UNL1        0.1189
     21 C          61.6971   89.0943   11.7088 C.3     1  UNL1        0.0886
     22 C          62.8526   89.6913   12.4562 C.3     1  UNL1        0.0748
     23 C          63.5272   90.9247   11.9334 C.3     1  UNL1        0.0432
     24 C          64.6827   91.5217   12.6808 C.ar    1  UNL1       -0.0234
     25 C          65.3573   92.7552   12.1580 C.ar    1  UNL1       -0.0045
     26 C          66.5127   93.3521   12.9054 C.ar    1  UNL1       -0.0003
     27 C          66.9935   92.7155   14.1757 C.ar    1  UNL1       -0.0003
     28 C          66.3189   91.4821   14.6986 C.ar    1  UNL1       -0.0032
     29 C          65.1635   90.8852   13.9511 C.ar    1  UNL1       -0.0103
     30 C          64.4888   89.6516   14.4740 C.3     1  UNL1        0.0953
     31 N          63.3334   89.0547   13.7265 N.3     1  UNL1       -0.2934
     32 H          62.5411   89.0442   14.3688 H       1  UNL1        0.1236
@<TRIPOS>BOND
     1    14    15    1
     2    15    16    1
     3    15    17    1
     4    17    18    1
     5    15    13    1
     6    13    12    1
     7    12     1    1
     8     1    21    1
     9    22    21    1
    10    22    23    1
    11    23    24    1
    12    24    25   ar
    13    25    26   ar
    14    26    27   ar
    15    27    28   ar
    16    28    29   ar
    17    29    30    1
    18    30    31    1
    19     2     1    1
    20     2     3    1
    21     3     4    1
    22     4     5    1
    23     5     6    1
    24     6     7   ar
    25     7     8   ar
    26     8     9   ar
    27     9    10   ar
    28    10    11   ar
    29    31    22    1
    30    11     2    1
    31    29    24   ar
    32    11     6   ar
    33    18    19    1
    34    18    20    1
    35    31    32    1
@<TRIPOS>MOLECULE
*****
 32 35 0 0 0
SMALL
GASTEIGER

@<TRIPOS>ATOM
      1 N          62.4200   89.7684   11.3025 N.3     1  UNL1       -0.2679
      2 C          63.4834   90.7969   11.5503 C.3     1  UNL1        0.0978
      3 C          64.0542   91.5769   10.4033 C.3     1  UNL1        0.0224
      4 C          65.1176   92.6054   10.6512 C.3     1  UNL1        0.0065
      5 C          65.6102   92.8538   12.0460 C.3     1  UNL1        0.0277
      6 C          65.0394   92.0737   13.1930 C.ar    1  UNL1       -0.0073
      7 C          65.5320   92.3220   14.5879 C.ar    1  UNL1       -0.0015
      8 C          64.9612   91.5419   15.7349 C.ar    1  UNL1        0.0203
      9 C          63.8978   90.5135   15.4870 C.ar    1  UNL1        0.0985
     10 N          63.4052   90.2651   14.0922 N.ar    1  UNL1       -0.2471
     11 C          63.9760   91.0452   12.9451 C.ar    1  UNL1        0.0695
     12 C          60.9807   90.0996   11.5645 C.3     1  UNL1        0.0725
     13 C          59.9717   89.9853   10.4604 C.3     1  UNL1        0.0187
     14 C          60.1155   89.3668    8.4364 C.3     1  UNL1        0.0014
     15 C          59.7988   88.6844    9.7341 C.3     1  UNL1        0.0156
     16 C          59.4820   88.0020   11.0318 C.3     1  UNL1        0.0014
     17 C          59.6258   87.3834    9.0078 C.3     1  UNL1        0.0651
     18 N          58.6927   87.2966    7.8366 N.3     1  UNL1       -0.3211
     19 H          57.7344   87.4437    8.1537 H       1  UNL1        0.1189
     20 H          58.7709   86.3747    7.4072 H       1  UNL1        0.1189
     21 C          62.7958   88.4088   10.7925 C.3     1  UNL1        0.0886
     22 C          63.0085   87.2788   11.7559 C.3     1  UNL1        0.0748
     23 C          62.6300   85.8804   11.3671 C.3     1  UNL1        0.0432
     24 C          62.8427   84.7504   12.3304 C.ar    1  UNL1       -0.0234
     25 C          62.4642   83.3521   11.9416 C.ar    1  UNL1       -0.0045
     26 C          62.6769   82.2222   12.9049 C.ar    1  UNL1       -0.0003
     27 C          63.2680   82.4907   14.2571 C.ar    1  UNL1       -0.0003
     28 C          63.6465   83.8891   14.6460 C.ar    1  UNL1       -0.0032
     29 C          63.4338   85.0189   13.6826 C.ar    1  UNL1       -0.0103
     30 C          63.8123   86.4174   14.0715 C.3     1  UNL1        0.0953
     31 N          63.5996   87.5473   13.1081 N.3     1  UNL1       -0.2934
     32 H          64.5118   87.9758   12.9509 H       1  UNL1        0.1236
@<TRIPOS>BOND
     1    14    15    1
     2    15    16    1
     3    15    17    1
     4    17    18    1
     5    15    13    1
     6    13    12    1
     7    12     1    1
     8     1    21    1
     9    22    21    1
    10    22    23    1
    11    23    24    1
    12    24    25   ar
    13    25    26   ar
    14    26    27   ar
    15    27    28   ar
    16    28    29   ar
    17    29    30    1
    18    30    31    1
    19     2     1    1
    20     2     3    1
    21     3     4    1
    22     4     5    1
    23     5     6    1
    24     6     7   ar
    25     7     8   ar
    26     8     9   ar
    27     9    10   ar
    28    10    11   ar
    29    31    22    1
    30    11     2    1
    31    29    24   ar
    32    11     6   ar
    33    18    19    1
    34    18    20    1
    35    31    32    1
@<TRIPOS>MOLECULE
*****
 32 35 0 0 0
SMALL
GASTEIGER

@<TRIPOS>ATOM
      1 N          63.4212   90.8150   11.9386 N.3     1  UNL1       -0.2679
      2 C          64.5722   91.7765   11.9133 C.3     1  UNL1        0.0978
      3 C          65.0343   92.3590   10.6105 C.3     1  UNL1        0.0224
      4 C          66.1853   93.3205   10.5852 C.3     1  UNL1        0.0065
      5 C          66.8743   93.6995   11.8625 C.3     1  UNL1        0.0277
      6 C          66.4122   93.1169   13.1652 C.ar    1  UNL1       -0.0073
      7 C          67.1012   93.4959   14.4427 C.ar    1  UNL1       -0.0015
      8 C          66.6392   92.9133   15.7454 C.ar    1  UNL1        0.0203
      9 C          65.4882   91.9518   15.7707 C.ar    1  UNL1        0.0985
     10 N          64.7992   91.5729   14.4934 N.ar    1  UNL1       -0.2471
     11 C          65.2612   92.1554   13.1906 C.ar    1  UNL1        0.0695
     12 C          62.6258   90.5642   10.6919 C.3     1  UNL1        0.0725
     13 C          61.1295   90.4831   10.7604 C.3     1  UNL1        0.0187
     14 C          61.2619   88.9383    9.3127 C.3     1  UNL1        0.0014
     15 C          60.4390   89.1690   10.5454 C.3     1  UNL1        0.0156
     16 C          59.6161   89.3998   11.7780 C.3     1  UNL1        0.0014
     17 C          59.7485   87.8549   10.3303 C.3     1  UNL1        0.0651
     18 N          59.5900   87.3092    8.9421 N.3     1  UNL1       -0.3211
     19 H          58.9705   87.9172    8.4065 H       1  UNL1        0.1189
     20 H          59.1898   86.3722    8.9888 H       1  UNL1        0.1189
     21 C          63.0655   90.1043   13.2108 C.3     1  UNL1        0.0886
     22 C          63.3836   88.6470   13.3699 C.3     1  UNL1        0.0748
     23 C          62.8936   87.6572   12.3549 C.3     1  UNL1        0.0432
     24 C          63.2117   86.1999   12.5141 C.ar    1  UNL1       -0.0234
     25 C          62.7217   85.2101   11.4991 C.ar    1  UNL1       -0.0045
     26 C          63.0398   83.7529   11.6583 C.ar    1  UNL1       -0.0003
     27 C          63.8478   83.2855   12.8325 C.ar    1  UNL1       -0.0003
     28 C          64.3378   84.2753   13.8475 C.ar    1  UNL1       -0.0032
     29 C          64.0197   85.7325   13.6883 C.ar    1  UNL1       -0.0103
     30 C          64.5097   86.7224   14.7033 C.3     1  UNL1        0.0953
     31 N          64.1916   88.1796   14.5441 N.3     1  UNL1       -0.2934
     32 H          65.0834   88.6728   14.5029 H       1  UNL1        0.1236
@<TRIPOS>BOND
     1    14    15    1
     2    15    16    1
     3    15    17    1
     4    17    18    1
     5    15    13    1
     6    13    12    1
     7    12     1    1
     8     1    21    1
     9    22    21    1
    10    22    23    1
    11    23    24    1
    12    24    25   ar
    13    25    26   ar
    14    26    27   ar
    15    27    28   ar
    16    28    29   ar
    17    29    30    1
    18    30    31    1
    19     2     1    1
    20     2     3    1
    21     3     4    1
    22     4     5    1
    23     5     6    1
    24     6     7   ar
    25     7     8   ar
    26     8     9   ar
    27     9    10   ar
    28    10    11   ar
    29    31    22    1
    30    11     2    1
    31    29    24   ar
    32    11     6   ar
    33    18    19    1
    34    18    20    1
    35    31    32    1
