@<TRIPOS>MOLECULE
*****
 29 31 0 0 0
SMALL
GASTEIGER

@<TRIPOS>ATOM
      1 N          61.1240   88.2696   10.6973 N.am    1  UNL1       -0.2573
      2 C          62.2841   88.8412   11.4572 C.2     1  UNL1        0.3080
      3 O          63.1054   87.9574   12.3485 O.2     1  UNL1       -0.2522
      4 N          62.6229   90.2965   11.3258 N.am    1  UNL1       -0.2681
      5 H          62.0839   90.8766   10.7408 H       1  UNL1        0.1564
      6 C          63.7831   90.8680   12.0858 C.ar    1  UNL1        0.0516
      7 C          64.0576   90.4137   13.4888 C.ar    1  UNL1        0.0147
      8 C          65.2177   90.9853   14.2487 C.ar    1  UNL1        0.0011
      9 C          66.1033   92.0111   13.6056 C.ar    1  UNL1       -0.0004
     10 C          65.8287   92.4653   12.2027 C.ar    1  UNL1        0.0011
     11 C          64.6686   91.8938   11.4428 C.ar    1  UNL1        0.0147
     12 C          67.2634   92.5826   14.3655 C.2     1  UNL1        0.0249
     13 C          68.7141   92.3218   14.0874 C.2     1  UNL1        0.1194
     14 N          69.5238   93.0933   15.0870 N.2     1  UNL1       -0.1510
     15 N          68.5735   93.8309   15.9830 N.2     1  UNL1       -0.1695
     16 C          67.1765   93.5154   15.5371 C.3     1  UNL1        0.1771
     17 C          60.7851   86.8144   10.8287 C.3     1  UNL1        0.1219
     18 C          63.2623   83.7234   11.0731 C.ar    1  UNL1        0.1385
     19 C          63.8090   83.6871    9.6768 C.ar    1  UNL1        0.0369
     20 C          63.3477   84.6933    8.6644 C.ar    1  UNL1        0.0028
     21 C          62.3398   85.7357    9.0483 C.ar    1  UNL1       -0.0024
     22 C          61.7931   85.7719   10.4447 C.ar    1  UNL1        0.0007
     23 C          62.2544   84.7658   11.4571 C.ar    1  UNL1        0.0343
     24 C          62.9078   81.4853   12.3441 C.3     1  UNL1        0.2525
     25 O          63.7235   82.7172   12.0855 O.3     1  UNL1       -0.4714
     26 C          60.3027   89.1535    9.8060 C.3     1  UNL1        0.1269
     27 C          59.9644   88.7084    8.4141 C.3     1  UNL1        0.1586
     28 O          59.7852   89.7238    7.3247 O.3     1  UNL1       -0.3802
     29 H          59.0052   90.2681    7.5152 H       1  UNL1        0.2105
@<TRIPOS>BOND
     1    24    25    1
     2    25    18    1
     3    18    19   ar
     4    19    20   ar
     5    20    21   ar
     6    21    22   ar
     7    22    17    1
     8    17     1    1
     9     1    26    1
    10    26    27    1
    11    27    28    1
    12     1     2   am
    13     2     3    2
    14     2     4   am
    15     4     6    1
    16     6     7   ar
    17     7     8   ar
    18     8     9   ar
    19     9    12    1
    20    12    13    2
    21    13    14    1
    22    14    15    2
    23    15    16    1
    24     9    10   ar
    25    10    11   ar
    26    22    23   ar
    27    23    18   ar
    28    11     6   ar
    29    16    12    1
    30    28    29    1
    31     4     5    1
@<TRIPOS>MOLECULE
*****
 29 31 0 0 0
SMALL
GASTEIGER

@<TRIPOS>ATOM
      1 N          63.4988   85.6538   15.9771 N.am    1  UNL1       -0.2573
      2 C          64.0299   86.7964   15.1632 C.2     1  UNL1        0.3080
      3 O          65.1322   86.5632   14.1730 O.2     1  UNL1       -0.2522
      4 N          63.4586   88.1721   15.3395 N.am    1  UNL1       -0.2681
      5 H          62.7351   88.3251   15.9894 H       1  UNL1        0.1564
      6 C          63.9897   89.3147   14.5256 C.ar    1  UNL1        0.0516
      7 C          63.3059   89.7083   13.2498 C.ar    1  UNL1        0.0147
      8 C          63.8370   90.8509   12.4359 C.ar    1  UNL1        0.0011
      9 C          65.0519   91.5998   12.8978 C.ar    1  UNL1       -0.0004
     10 C          65.7356   91.2062   14.1735 C.ar    1  UNL1        0.0011
     11 C          65.2045   90.0637   14.9874 C.ar    1  UNL1        0.0147
     12 C          65.5830   92.7424   12.0838 C.2     1  UNL1        0.0249
     13 C          65.5240   92.8631   10.5899 C.2     1  UNL1        0.1194
     14 N          66.1708   94.1602   10.2037 N.2     1  UNL1       -0.1510
     15 N          66.6297   94.8412   11.4590 N.2     1  UNL1       -0.1695
     16 C          66.2664   93.9650   12.6211 C.3     1  UNL1        0.1771
     17 C          64.0700   84.2781   15.8008 C.3     1  UNL1        0.1219
     18 C          63.9100   82.5442   12.2345 C.ar    1  UNL1        0.1385
     19 C          62.6882   81.6881   12.3901 C.ar    1  UNL1        0.0369
     20 C          61.9269   81.6953   13.6826 C.ar    1  UNL1        0.0028
     21 C          62.3875   82.5586   14.8195 C.ar    1  UNL1       -0.0024
     22 C          63.6093   83.4147   14.6639 C.ar    1  UNL1        0.0007
     23 C          64.3706   83.4075   13.3714 C.ar    1  UNL1        0.0343
     24 C          64.1635   83.3208    9.7683 C.3     1  UNL1        0.2525
     25 O          64.6712   82.5370   10.9421 O.3     1  UNL1       -0.4714
     26 C          62.3964   85.8870   16.9674 C.3     1  UNL1        0.1269
     27 C          62.6694   86.6551   18.2264 C.3     1  UNL1        0.1586
     28 O          63.0180   88.1123   18.1553 O.3     1  UNL1       -0.3802
     29 H          63.8739   88.2187   17.7114 H       1  UNL1        0.2105
@<TRIPOS>BOND
     1    24    25    1
     2    25    18    1
     3    18    19   ar
     4    19    20   ar
     5    20    21   ar
     6    21    22   ar
     7    22    17    1
     8    17     1    1
     9     1    26    1
    10    26    27    1
    11    27    28    1
    12     1     2   am
    13     2     3    2
    14     2     4   am
    15     4     6    1
    16     6     7   ar
    17     7     8   ar
    18     8     9   ar
    19     9    12    1
    20    12    13    2
    21    13    14    1
    22    14    15    2
    23    15    16    1
    24     9    10   ar
    25    10    11   ar
    26    22    23   ar
    27    23    18   ar
    28    11     6   ar
    29    16    12    1
    30    28    29    1
    31     4     5    1
@<TRIPOS>MOLECULE
*****
 29 31 0 0 0
SMALL
GASTEIGER

@<TRIPOS>ATOM
      1 N          61.0877   88.5505   10.6668 N.am    1  UNL1       -0.2573
      2 C          62.2647   89.0832   11.4291 C.2     1  UNL1        0.3080
      3 O          63.0602   88.1704   12.3144 O.2     1  UNL1       -0.2522
      4 N          62.6461   90.5287   11.3059 N.am    1  UNL1       -0.2681
      5 H          62.1240   91.1278   10.7249 H       1  UNL1        0.1564
      6 C          63.8231   91.0613   12.0682 C.ar    1  UNL1        0.0516
      7 C          64.8034   91.9739   11.3927 C.ar    1  UNL1        0.0147
      8 C          65.9804   92.5065   12.1549 C.ar    1  UNL1        0.0011
      9 C          66.1770   92.1266   13.5927 C.ar    1  UNL1       -0.0004
     10 C          65.1967   91.2141   14.2681 C.ar    1  UNL1        0.0011
     11 C          64.0198   90.6814   13.5059 C.ar    1  UNL1        0.0147
     12 C          67.3540   92.6592   14.3550 C.2     1  UNL1        0.0249
     13 C          68.7968   92.3682   14.0656 C.2     1  UNL1        0.1194
     14 N          69.6293   93.1055   15.0722 N.2     1  UNL1       -0.1510
     15 N          68.7011   93.8522   15.9837 N.2     1  UNL1       -0.1695
     16 C          67.2948   93.5764   15.5405 C.3     1  UNL1        0.1771
     17 C          60.7063   87.1051   10.7899 C.3     1  UNL1        0.1219
     18 C          62.8208   84.8133    8.3351 C.ar    1  UNL1        0.1385
     19 C          63.5054   83.9058    9.3137 C.ar    1  UNL1        0.0369
     20 C          63.2570   84.0648   10.7844 C.ar    1  UNL1        0.0028
     21 C          62.3240   85.1312   11.2765 C.ar    1  UNL1       -0.0024
     22 C          61.6394   86.0386   10.2978 C.ar    1  UNL1        0.0007
     23 C          61.8878   85.8797    8.8271 C.ar    1  UNL1        0.0343
     24 C          61.9210   84.4022    5.9327 C.3     1  UNL1        0.2525
     25 O          63.0692   84.6543    6.8643 O.3     1  UNL1       -0.4714
     26 C          60.2922   89.4634    9.7814 C.3     1  UNL1        0.1269
     27 C          59.8413   88.9927    8.4305 C.3     1  UNL1        0.1586
     28 O          59.8971   89.9228    7.2551 O.3     1  UNL1       -0.3802
     29 H          59.2718   90.6521    7.3899 H       1  UNL1        0.2105
@<TRIPOS>BOND
     1    24    25    1
     2    25    18    1
     3    18    19   ar
     4    19    20   ar
     5    20    21   ar
     6    21    22   ar
     7    22    17    1
     8    17     1    1
     9     1    26    1
    10    26    27    1
    11    27    28    1
    12     1     2   am
    13     2     3    2
    14     2     4   am
    15     4     6    1
    16     6     7   ar
    17     7     8   ar
    18     8     9   ar
    19     9    12    1
    20    12    13    2
    21    13    14    1
    22    14    15    2
    23    15    16    1
    24     9    10   ar
    25    10    11   ar
    26    22    23   ar
    27    23    18   ar
    28    11     6   ar
    29    16    12    1
    30    28    29    1
    31     4     5    1
@<TRIPOS>MOLECULE
*****
 29 31 0 0 0
SMALL
GASTEIGER

@<TRIPOS>ATOM
      1 N          63.2488   85.8718   14.8891 N.am    1  UNL1       -0.2573
      2 C          63.5824   87.1405   14.1617 C.2     1  UNL1        0.3080
      3 O          63.2059   87.2987   12.7183 O.2     1  UNL1       -0.2522
      4 N          64.2924   88.2511   14.8776 N.am    1  UNL1       -0.2681
      5 H          64.5395   88.1473   15.8250 H       1  UNL1        0.1564
      6 C          64.6259   89.5198   14.1502 C.ar    1  UNL1        0.0516
      7 C          63.8071   89.9433   12.9669 C.ar    1  UNL1        0.0147
      8 C          64.1406   91.2120   12.2394 C.ar    1  UNL1        0.0011
      9 C          65.2929   92.0572   12.6954 C.ar    1  UNL1       -0.0004
     10 C          66.1117   91.6337   13.8787 C.ar    1  UNL1        0.0011
     11 C          65.7782   90.3650   14.6061 C.ar    1  UNL1        0.0147
     12 C          65.6265   93.3259   11.9679 C.2     1  UNL1        0.0249
     13 C          66.2565   94.5474   12.5690 C.2     1  UNL1        0.1194
     14 N          66.4079   95.5723   11.4843 N.2     1  UNL1       -0.1510
     15 N          65.8715   94.9843   10.2128 N.2     1  UNL1       -0.1695
     16 C          65.3885   93.5960   10.5117 C.3     1  UNL1        0.1771
     17 C          62.5389   84.7613   14.1732 C.3     1  UNL1        0.1219
     18 C          63.4834   84.0710   10.3809 C.ar    1  UNL1        0.1385
     19 C          64.3934   82.8875   10.5263 C.ar    1  UNL1        0.0369
     20 C          64.6853   82.3286   11.8874 C.ar    1  UNL1        0.0028
     21 C          64.0671   82.9532   13.1030 C.ar    1  UNL1       -0.0024
     22 C          63.1571   84.1366   12.9575 C.ar    1  UNL1        0.0007
     23 C          62.8652   84.6955   11.5965 C.ar    1  UNL1        0.0343
     24 C          62.4353   85.9182    8.8845 C.3     1  UNL1        0.2525
     25 O          63.1915   84.6299    9.0198 O.3     1  UNL1       -0.4714
     26 C          63.6253   85.7137   16.3325 C.3     1  UNL1        0.1269
     27 C          62.7095   86.2214   17.4064 C.3     1  UNL1        0.1586
     28 O          61.2361   86.3293   17.1464 O.3     1  UNL1       -0.3802
     29 H          61.0764   87.0015   16.4656 H       1  UNL1        0.2105
@<TRIPOS>BOND
     1    24    25    1
     2    25    18    1
     3    18    19   ar
     4    19    20   ar
     5    20    21   ar
     6    21    22   ar
     7    22    17    1
     8    17     1    1
     9     1    26    1
    10    26    27    1
    11    27    28    1
    12     1     2   am
    13     2     3    2
    14     2     4   am
    15     4     6    1
    16     6     7   ar
    17     7     8   ar
    18     8     9   ar
    19     9    12    1
    20    12    13    2
    21    13    14    1
    22    14    15    2
    23    15    16    1
    24     9    10   ar
    25    10    11   ar
    26    22    23   ar
    27    23    18   ar
    28    11     6   ar
    29    16    12    1
    30    28    29    1
    31     4     5    1
@<TRIPOS>MOLECULE
*****
 29 31 0 0 0
SMALL
GASTEIGER

@<TRIPOS>ATOM
      1 N          63.7368   86.9978   16.0778 N.am    1  UNL1       -0.2573
      2 C          64.3018   88.0096   15.1255 C.2     1  UNL1        0.3080
      3 O          65.2911   87.5857   14.0807 O.2     1  UNL1       -0.2522
      4 N          63.8775   89.4454   15.2180 N.am    1  UNL1       -0.2681
      5 H          63.2282   89.7237   15.9038 H       1  UNL1        0.1564
      6 C          64.4425   90.4573   14.2657 C.ar    1  UNL1        0.0516
      7 C          65.6586   91.2487   14.6467 C.ar    1  UNL1        0.0147
      8 C          66.2236   92.2605   13.6944 C.ar    1  UNL1        0.0011
      9 C          65.5726   92.4810   12.3611 C.ar    1  UNL1       -0.0004
     10 C          64.3567   91.6896   11.9801 C.ar    1  UNL1        0.0011
     11 C          63.7916   90.6778   12.9324 C.ar    1  UNL1        0.0147
     12 C          66.1376   93.4928   11.4088 C.2     1  UNL1        0.0249
     13 C          66.7588   93.1983   10.0756 C.2     1  UNL1        0.1194
     14 N          67.1858   94.5003    9.4653 N.2     1  UNL1       -0.1510
     15 N          66.8285   95.5996   10.4213 N.2     1  UNL1       -0.1695
     16 C          66.1807   94.9770   11.6225 C.3     1  UNL1        0.1771
     17 C          64.1610   85.5620   15.9854 C.3     1  UNL1        0.1219
     18 C          62.5641   82.4427   14.1226 C.ar    1  UNL1        0.1385
     19 C          62.5344   82.9417   12.7084 C.ar    1  UNL1        0.0369
     20 C          63.0469   84.3142   12.3865 C.ar    1  UNL1        0.0028
     21 C          63.5891   85.1876   13.4788 C.ar    1  UNL1       -0.0024
     22 C          63.6188   84.6886   14.8930 C.ar    1  UNL1        0.0007
     23 C          63.1063   83.3161   15.2149 C.ar    1  UNL1        0.0343
     24 C          60.6303   80.7076   14.1307 C.3     1  UNL1        0.2525
     25 O          62.0516   81.0702   14.4446 O.3     1  UNL1       -0.4714
     26 C          62.7474   87.4218   17.1226 C.3     1  UNL1        0.1269
     27 C          61.7143   86.4520   17.6147 C.3     1  UNL1        0.1586
     28 O          60.5956   86.0254   16.7111 O.3     1  UNL1       -0.3802
     29 H          60.0257   86.7868   16.5204 H       1  UNL1        0.2105
@<TRIPOS>BOND
     1    24    25    1
     2    25    18    1
     3    18    19   ar
     4    19    20   ar
     5    20    21   ar
     6    21    22   ar
     7    22    17    1
     8    17     1    1
     9     1    26    1
    10    26    27    1
    11    27    28    1
    12     1     2   am
    13     2     3    2
    14     2     4   am
    15     4     6    1
    16     6     7   ar
    17     7     8   ar
    18     8     9   ar
    19     9    12    1
    20    12    13    2
    21    13    14    1
    22    14    15    2
    23    15    16    1
    24     9    10   ar
    25    10    11   ar
    26    22    23   ar
    27    23    18   ar
    28    11     6   ar
    29    16    12    1
    30    28    29    1
    31     4     5    1
@<TRIPOS>MOLECULE
*****
 29 31 0 0 0
SMALL
GASTEIGER

@<TRIPOS>ATOM
      1 N          60.9698   87.5231   10.8411 N.am    1  UNL1       -0.2573
      2 C          62.1488   88.1774   11.4982 C.2     1  UNL1        0.3080
      3 O          63.4545   87.4456   11.5960 O.2     1  UNL1       -0.2522
      4 N          62.0221   89.5635   12.0575 N.am    1  UNL1       -0.2681
      5 H          61.1651   90.0438   11.9933 H       1  UNL1        0.1564
      6 C          63.2012   90.2177   12.7146 C.ar    1  UNL1        0.0516
      7 C          63.9159   91.3419   12.0250 C.ar    1  UNL1        0.0147
      8 C          65.0949   91.9962   12.6821 C.ar    1  UNL1        0.0011
      9 C          65.5593   91.5262   14.0288 C.ar    1  UNL1       -0.0004
     10 C          64.8447   90.4020   14.7183 C.ar    1  UNL1        0.0011
     11 C          63.6656   89.7478   14.0612 C.ar    1  UNL1        0.0147
     12 C          66.7384   92.1804   14.6859 C.2     1  UNL1        0.0249
     13 C          66.9942   93.6560   14.7705 C.2     1  UNL1        0.1194
     14 N          68.2826   93.8615   15.5106 N.2     1  UNL1       -0.1510
     15 N          68.8231   92.5129   15.8835 N.2     1  UNL1       -0.1695
     16 C          67.8688   91.4739   15.3739 C.3     1  UNL1        0.1771
     17 C          61.0964   86.1371   10.2818 C.3     1  UNL1        0.1219
     18 C          63.3350   84.0398   12.7997 C.ar    1  UNL1        0.1385
     19 C          64.2735   83.3609   11.8467 C.ar    1  UNL1        0.0369
     20 C          64.1530   83.6075   10.3720 C.ar    1  UNL1        0.0028
     21 C          63.0940   84.5328    9.8504 C.ar    1  UNL1       -0.0024
     22 C          62.1555   85.2117   10.8034 C.ar    1  UNL1        0.0007
     23 C          62.2760   84.9651   12.2781 C.ar    1  UNL1        0.0343
     24 C          62.3947   83.0138   14.9937 C.3     1  UNL1        0.2525
     25 O          63.4555   83.7932   14.2744 O.3     1  UNL1       -0.4714
     26 C          59.6640   88.2550   10.7433 C.3     1  UNL1        0.1269
     27 C          59.1197   88.9806   11.9379 C.3     1  UNL1        0.1586
     28 O          59.2574   90.4710   12.0370 O.3     1  UNL1       -0.3802
     29 H          60.1954   90.7042   12.1189 H       1  UNL1        0.2105
@<TRIPOS>BOND
     1    24    25    1
     2    25    18    1
     3    18    19   ar
     4    19    20   ar
     5    20    21   ar
     6    21    22   ar
     7    22    17    1
     8    17     1    1
     9     1    26    1
    10    26    27    1
    11    27    28    1
    12     1     2   am
    13     2     3    2
    14     2     4   am
    15     4     6    1
    16     6     7   ar
    17     7     8   ar
    18     8     9   ar
    19     9    12    1
    20    12    13    2
    21    13    14    1
    22    14    15    2
    23    15    16    1
    24     9    10   ar
    25    10    11   ar
    26    22    23   ar
    27    23    18   ar
    28    11     6   ar
    29    16    12    1
    30    28    29    1
    31     4     5    1
@<TRIPOS>MOLECULE
*****
 29 31 0 0 0
SMALL
GASTEIGER

@<TRIPOS>ATOM
      1 N          59.8665   88.1839    7.9052 N.am    1  UNL1       -0.2573
      2 C          60.6064   88.9649    8.9505 C.2     1  UNL1        0.3080
      3 O          60.1938   90.3717    9.2677 O.2     1  UNL1       -0.2522
      4 N          61.7590   88.3391    9.6785 N.am    1  UNL1       -0.2681
      5 H          62.0298   87.4158    9.4703 H       1  UNL1        0.1564
      6 C          62.4989   89.1201   10.7238 C.ar    1  UNL1        0.0516
      7 C          62.8390   88.4804   12.0373 C.ar    1  UNL1        0.0147
      8 C          63.5789   89.2614   13.0826 C.ar    1  UNL1        0.0011
      9 C          63.9786   90.6821   12.8144 C.ar    1  UNL1       -0.0004
     10 C          63.6385   91.3217   11.5010 C.ar    1  UNL1        0.0011
     11 C          62.8986   90.5407   10.4557 C.ar    1  UNL1        0.0147
     12 C          64.7185   91.4631   13.8597 C.2     1  UNL1        0.0249
     13 C          65.7965   92.4747   13.6060 C.2     1  UNL1        0.1194
     14 N          66.2546   93.0065   14.9317 N.2     1  UNL1       -0.1510
     15 N          65.4595   92.3235   16.0047 N.2     1  UNL1       -0.1695
     16 C          64.5101   91.3696   15.3422 C.3     1  UNL1        0.1771
     17 C          58.7140   88.8097    7.1771 C.3     1  UNL1        0.1219
     18 C          60.5980   91.2544    4.6823 C.ar    1  UNL1        0.1385
     19 C          59.4553   92.0917    4.1890 C.ar    1  UNL1        0.0369
     20 C          58.0656   91.8350    4.6918 C.ar    1  UNL1        0.0028
     21 C          57.8185   90.7410    5.6878 C.ar    1  UNL1       -0.0024
     22 C          58.9611   89.9037    6.1811 C.ar    1  UNL1        0.0007
     23 C          60.3508   90.1604    5.6783 C.ar    1  UNL1        0.0343
     24 C          62.1940   92.2259    2.8771 C.3     1  UNL1        0.2525
     25 O          61.9877   91.5111    4.1795 O.3     1  UNL1       -0.4714
     26 C          60.2792   86.7771    7.5880 C.3     1  UNL1        0.1269
     27 C          60.8548   85.9038    8.6631 C.3     1  UNL1        0.1586
     28 O          62.3294   85.6316    8.6990 O.3     1  UNL1       -0.3802
     29 H          62.5819   85.1150    7.9178 H       1  UNL1        0.2105
@<TRIPOS>BOND
     1    24    25    1
     2    25    18    1
     3    18    19   ar
     4    19    20   ar
     5    20    21   ar
     6    21    22   ar
     7    22    17    1
     8    17     1    1
     9     1    26    1
    10    26    27    1
    11    27    28    1
    12     1     2   am
    13     2     3    2
    14     2     4   am
    15     4     6    1
    16     6     7   ar
    17     7     8   ar
    18     8     9   ar
    19     9    12    1
    20    12    13    2
    21    13    14    1
    22    14    15    2
    23    15    16    1
    24     9    10   ar
    25    10    11   ar
    26    22    23   ar
    27    23    18   ar
    28    11     6   ar
    29    16    12    1
    30    28    29    1
    31     4     5    1
