@<TRIPOS>MOLECULE
*****
 31 32 0 0 0
SMALL
GASTEIGER

@<TRIPOS>ATOM
      1 C          62.8934   90.4470   12.5456 C.ar    1  UNL1        0.1986
      2 N          64.0039   91.2765   11.9721 N.ar    1  UNL1       -0.0331
      3 O          63.7811   91.3902   10.4931 O.2     1  UNL1       -0.2400
      4 N          62.5330   90.6311   10.1526 N.ar    1  UNL1       -0.0391
      5 C          61.9843   90.0482   11.4211 C.ar    1  UNL1        0.2426
      6 C          60.7444   89.2130   11.5436 C.2     1  UNL1        0.3943
      7 N          59.8565   89.3602   12.7437 N.2     1  UNL1        0.1539
      8 O          58.6166   88.5250   12.8663 O.2     1  UNL1       -0.3110
      9 H          58.0620   88.6170   13.6159 H       1  UNL1        0.3605
     10 N          60.3922   88.2307   10.4662 N.pl3   1  UNL1       -0.1942
     11 H          59.5784   88.3613    9.9278 H       1  UNL1        0.2987
     12 C          61.2801   87.0493   10.2089 C.ar    1  UNL1        0.1364
     13 C          61.8497   86.8233    8.8399 C.ar    1  UNL1        0.0425
     14 C          62.7375   85.6419    8.5826 C.ar    1  UNL1        0.0336
     15 C          63.0557   84.6866    9.6944 C.ar    1  UNL1        0.1465
     16 F          63.9435   83.5053    9.4372 F       1  UNL1       -0.2036
     17 C          62.4860   84.9127   11.0636 C.ar    1  UNL1        0.0654
     18 BR         62.8042   83.9574   12.1754 Br      1  UNL1       -0.0465
     19 C          61.5982   86.0940   11.3208 C.ar    1  UNL1        0.0491
     20 N          62.7221   90.0807   13.9901 N.pl3   1  UNL1       -0.3127
     21 H          61.8349   90.1441   14.4121 H       1  UNL1        0.1484
     22 C          63.9025   89.6180   14.7916 C.3     1  UNL1        0.1074
     23 C          64.3221   88.1786   14.7462 C.3     1  UNL1        0.1137
     24 N          63.5829   87.1559   15.5571 N.3     1  UNL1       -0.1679
     25 H          63.6435   87.4525   16.5311 H       1  UNL1        0.1499
     26 N          64.4282   84.2786   15.4737 N.3     1  UNL1       -0.1934
     27 S          64.0055   85.7172   15.5154 S.O2    1  UNL1        0.0927
     28 O          65.3250   86.1219   14.9277 O.2     1  UNL1       -0.1415
     29 O          62.6861   85.3126   16.1031 O.2     1  UNL1       -0.1415
     30 H          65.3699   84.2120   15.0875 H       1  UNL1        0.1453
     31 H          63.7819   83.7512   14.8868 H       1  UNL1        0.1453
@<TRIPOS>BOND
     1    26    27    1
     2    27    28    2
     3    27    29    2
     4    27    24    1
     5    24    23    1
     6    23    22    1
     7    22    20    1
     8    20     1    1
     9     1     2   ar
    10     2     3   ar
    11     3     4   ar
    12     4     5   ar
    13     5     6    1
    14     6     7    2
    15     7     8    1
    16     6    10    1
    17    10    12    1
    18    12    13   ar
    19    13    14   ar
    20    14    15   ar
    21    15    16    1
    22    15    17   ar
    23    17    18    1
    24    17    19   ar
    25     5     1   ar
    26    19    12   ar
    27    26    30    1
    28    26    31    1
    29    24    25    1
    30    20    21    1
    31     8     9    1
    32    10    11    1
@<TRIPOS>MOLECULE
*****
 31 32 0 0 0
SMALL
GASTEIGER

@<TRIPOS>ATOM
      1 C          64.4140   90.9226   14.7850 C.ar    1  UNL1        0.1986
      2 N          63.5758   91.2498   15.9851 N.ar    1  UNL1       -0.0331
      3 O          64.2618   92.3464   16.7446 O.2     1  UNL1       -0.2400
      4 N          65.5239   92.6970   16.0138 N.ar    1  UNL1       -0.0391
      5 C          65.6180   91.8170   14.8027 C.ar    1  UNL1        0.2426
      6 C          66.7222   91.8293   13.7875 C.2     1  UNL1        0.3943
      7 N          68.1513   91.9173   14.2348 N.2     1  UNL1        0.1539
      8 O          69.2555   91.9296   13.2197 O.2     1  UNL1       -0.3110
      9 H          70.1482   91.9846   13.4991 H       1  UNL1        0.3605
     10 N          66.3974   91.7537   12.3251 N.pl3   1  UNL1       -0.1942
     11 H          65.9878   90.9392   11.9533 H       1  UNL1        0.2987
     12 C          66.6967   92.9188   11.4291 C.ar    1  UNL1        0.1364
     13 C          67.4685   92.7101   10.1599 C.ar    1  UNL1        0.0425
     14 C          67.7677   93.8753    9.2639 C.ar    1  UNL1        0.0336
     15 C          67.2951   95.2491    9.6370 C.ar    1  UNL1        0.1465
     16 F          67.5944   96.4143    8.7410 F       1  UNL1       -0.2036
     17 C          66.5233   95.4579   10.9062 C.ar    1  UNL1        0.0654
     18 BR         66.0508   96.8317   11.2793 Br      1  UNL1       -0.0465
     19 C          66.2241   94.2927   11.8022 C.ar    1  UNL1        0.0491
     20 N          64.1028   89.8834   13.7490 N.pl3   1  UNL1       -0.3127
     21 H          64.6962   89.1058   13.6381 H       1  UNL1        0.1484
     22 C          62.8875   90.0291   12.8820 C.3     1  UNL1        0.1074
     23 C          62.5676   88.9819   11.8568 C.3     1  UNL1        0.1137
     24 N          61.1430   88.7315   11.4597 N.3     1  UNL1       -0.1679
     25 H          61.1614   88.3827   10.5013 H       1  UNL1        0.1499
     26 N          59.1507   90.9734   11.5271 N.3     1  UNL1       -0.1934
     27 S          60.1469   89.8524   11.4934 S.O2    1  UNL1        0.0927
     28 O          59.5764   89.3071   12.7691 O.2     1  UNL1       -0.1415
     29 O          60.7173   90.3977   10.2177 O.2     1  UNL1       -0.1415
     30 H          58.5592   90.8779   12.3526 H       1  UNL1        0.1453
     31 H          58.5717   90.9391   10.6881 H       1  UNL1        0.1453
@<TRIPOS>BOND
     1    26    27    1
     2    27    28    2
     3    27    29    2
     4    27    24    1
     5    24    23    1
     6    23    22    1
     7    22    20    1
     8    20     1    1
     9     1     2   ar
    10     2     3   ar
    11     3     4   ar
    12     4     5   ar
    13     5     6    1
    14     6     7    2
    15     7     8    1
    16     6    10    1
    17    10    12    1
    18    12    13   ar
    19    13    14   ar
    20    14    15   ar
    21    15    16    1
    22    15    17   ar
    23    17    18    1
    24    17    19   ar
    25     5     1   ar
    26    19    12   ar
    27    26    30    1
    28    26    31    1
    29    24    25    1
    30    20    21    1
    31     8     9    1
    32    10    11    1
@<TRIPOS>MOLECULE
*****
 31 32 0 0 0
SMALL
GASTEIGER

@<TRIPOS>ATOM
      1 C          62.8350   90.4498   12.1846 C.ar    1  UNL1        0.1986
      2 N          63.8296   91.2993   11.4503 N.ar    1  UNL1       -0.0331
      3 O          63.3863   91.4011   10.0209 O.2     1  UNL1       -0.2400
      4 N          62.1178   90.6146    9.8718 N.ar    1  UNL1       -0.0391
      5 C          61.7770   90.0267   11.2091 C.ar    1  UNL1        0.2426
      6 C          60.5872   89.1666   11.5168 C.2     1  UNL1        0.3943
      7 N          59.7864   89.4117   12.7613 N.2     1  UNL1        0.1539
      8 O          58.5966   88.5516   13.0689 O.2     1  UNL1       -0.3110
      9 H          58.0963   88.7047   13.8463 H       1  UNL1        0.3605
     10 N          60.1983   88.0615   10.5801 N.pl3   1  UNL1       -0.1942
     11 H          59.3126   88.0695   10.1501 H       1  UNL1        0.2987
     12 C          61.1586   86.9443   10.2983 C.ar    1  UNL1        0.1364
     13 C          61.7163   86.7649    8.9175 C.ar    1  UNL1        0.0425
     14 C          62.6767   85.6476    8.6358 C.ar    1  UNL1        0.0336
     15 C          63.0794   84.7097    9.7349 C.ar    1  UNL1        0.1465
     16 F          64.0398   83.5924    9.4532 F       1  UNL1       -0.2036
     17 C          62.5217   84.8891   11.1159 C.ar    1  UNL1        0.0654
     18 BR         62.9244   83.9512   12.2150 Br      1  UNL1       -0.0465
     19 C          61.5613   86.0063   11.3976 C.ar    1  UNL1        0.0491
     20 N          62.8889   90.0873   13.6391 N.pl3   1  UNL1       -0.3127
     21 H          62.0547   89.9457   14.1424 H       1  UNL1        0.1484
     22 C          64.2137   89.9404   14.3269 C.3     1  UNL1        0.1074
     23 C          64.9184   91.1508   14.8638 C.3     1  UNL1        0.1137
     24 N          65.6161   92.0903   13.9255 N.3     1  UNL1       -0.1679
     25 H          65.2035   91.9464   13.0039 H       1  UNL1        0.1499
     26 N          68.5914   91.9277   13.5772 N.3     1  UNL1       -0.1934
     27 S          67.1038   92.0090   13.7514 S.O2    1  UNL1        0.0927
     28 O          66.9750   92.5968   12.3774 O.2     1  UNL1       -0.1415
     29 O          67.2325   91.4212   15.1254 O.2     1  UNL1       -0.1415
     30 H          68.8461   92.2862   12.6569 H       1  UNL1        0.1453
     31 H          68.8907   90.9560   13.6584 H       1  UNL1        0.1453
@<TRIPOS>BOND
     1    26    27    1
     2    27    28    2
     3    27    29    2
     4    27    24    1
     5    24    23    1
     6    23    22    1
     7    22    20    1
     8    20     1    1
     9     1     2   ar
    10     2     3   ar
    11     3     4   ar
    12     4     5   ar
    13     5     6    1
    14     6     7    2
    15     7     8    1
    16     6    10    1
    17    10    12    1
    18    12    13   ar
    19    13    14   ar
    20    14    15   ar
    21    15    16    1
    22    15    17   ar
    23    17    18    1
    24    17    19   ar
    25     5     1   ar
    26    19    12   ar
    27    26    30    1
    28    26    31    1
    29    24    25    1
    30    20    21    1
    31     8     9    1
    32    10    11    1
@<TRIPOS>MOLECULE
*****
 31 32 0 0 0
SMALL
GASTEIGER

@<TRIPOS>ATOM
      1 C          64.0840   89.8570   13.6517 C.ar    1  UNL1        0.1986
      2 N          64.5267   88.7967   14.6160 N.ar    1  UNL1       -0.0331
      3 O          64.0453   87.4724   14.1019 O.2     1  UNL1       -0.2400
      4 N          63.3052   87.7141   12.8198 N.ar    1  UNL1       -0.0391
      5 C          63.3291   89.1879   12.5415 C.ar    1  UNL1        0.2426
      6 C          62.7073   89.8724   11.3605 C.2     1  UNL1        0.3943
      7 N          63.4801   90.9114   10.6033 N.2     1  UNL1        0.1539
      8 O          62.8583   91.5959    9.4222 O.2     1  UNL1       -0.3110
      9 H          63.3410   92.2449    8.9492 H       1  UNL1        0.3605
     10 N          61.3128   89.5179   10.9367 N.pl3   1  UNL1       -0.1942
     11 H          60.5451   90.0073   11.3114 H       1  UNL1        0.2987
     12 C          61.0880   88.4179    9.9420 C.ar    1  UNL1        0.1364
     13 C          59.7897   88.3357    9.1953 C.ar    1  UNL1        0.0425
     14 C          59.5648   87.2357    8.2006 C.ar    1  UNL1        0.0336
     15 C          60.6383   86.2178    7.9527 C.ar    1  UNL1        0.1465
     16 F          60.4135   85.1178    6.9580 F       1  UNL1       -0.2036
     17 C          61.9367   86.2999    8.6994 C.ar    1  UNL1        0.0654
     18 BR         63.0102   85.2820    8.4515 Br      1  UNL1       -0.0465
     19 C          62.1615   87.4000    9.6941 C.ar    1  UNL1        0.0491
     20 N          64.3497   91.3280   13.7757 N.pl3   1  UNL1       -0.3127
     21 H          63.6163   91.9429   14.0067 H       1  UNL1        0.1484
     22 C          65.7326   91.8623   13.5479 C.3     1  UNL1        0.1074
     23 C          65.9697   92.9063   12.4973 C.3     1  UNL1        0.1137
     24 N          66.1742   92.4992   11.0681 N.3     1  UNL1       -0.1679
     25 H          66.2777   91.4845   11.0629 H       1  UNL1        0.1499
     26 N          68.4810   93.6130    9.5066 N.3     1  UNL1       -0.1934
     27 S          67.3276   93.0561   10.2874 S.O2    1  UNL1        0.0927
     28 O          68.2588   92.1137   10.9908 O.2     1  UNL1       -0.1415
     29 O          66.3964   93.9985    9.5839 O.2     1  UNL1       -0.1415
     30 H          69.3394   93.1350    9.7806 H       1  UNL1        0.1453
     31 H          68.5713   94.6107    9.6984 H       1  UNL1        0.1453
@<TRIPOS>BOND
     1    26    27    1
     2    27    28    2
     3    27    29    2
     4    27    24    1
     5    24    23    1
     6    23    22    1
     7    22    20    1
     8    20     1    1
     9     1     2   ar
    10     2     3   ar
    11     3     4   ar
    12     4     5   ar
    13     5     6    1
    14     6     7    2
    15     7     8    1
    16     6    10    1
    17    10    12    1
    18    12    13   ar
    19    13    14   ar
    20    14    15   ar
    21    15    16    1
    22    15    17   ar
    23    17    18    1
    24    17    19   ar
    25     5     1   ar
    26    19    12   ar
    27    26    30    1
    28    26    31    1
    29    24    25    1
    30    20    21    1
    31     8     9    1
    32    10    11    1
@<TRIPOS>MOLECULE
*****
 31 32 0 0 0
SMALL
GASTEIGER

@<TRIPOS>ATOM
      1 C          63.1836   90.8779   12.3498 C.ar    1  UNL1        0.1986
      2 N          64.3780   91.6369   11.8526 N.ar    1  UNL1       -0.0331
      3 O          64.2027   91.8643   10.3803 O.2     1  UNL1       -0.2400
      4 N          62.9000   91.2457    9.9677 N.ar    1  UNL1       -0.0391
      5 C          62.2701   90.6361   11.1849 C.ar    1  UNL1        0.2426
      6 C          60.9573   89.9118   11.2293 C.2     1  UNL1        0.3943
      7 N          60.4437   89.3692   12.5301 N.2     1  UNL1        0.1539
      8 O          59.1309   88.6450   12.5745 O.2     1  UNL1       -0.3110
      9 H          58.8101   88.3061   13.3871 H       1  UNL1        0.3605
     10 N          60.1581   89.7301    9.9731 N.pl3   1  UNL1       -0.1942
     11 H          59.5546   90.4447    9.6659 H       1  UNL1        0.2987
     12 C          60.2783   88.4596    9.1848 C.ar    1  UNL1        0.1364
     13 C          59.1828   88.0543    8.2439 C.ar    1  UNL1        0.0425
     14 C          59.3030   86.7837    7.4556 C.ar    1  UNL1        0.0336
     15 C          60.5187   85.9186    7.6083 C.ar    1  UNL1        0.1465
     16 F          60.6389   84.6481    6.8201 F       1  UNL1       -0.2036
     17 C          61.6143   86.3239    8.5493 C.ar    1  UNL1        0.0654
     18 BR         62.8301   85.4587    8.7021 Br      1  UNL1       -0.0465
     19 C          61.4941   87.5944    9.3376 C.ar    1  UNL1        0.0491
     20 N          62.9446   90.4379   13.7638 N.pl3   1  UNL1       -0.3127
     21 H          62.1655   89.8759   13.9794 H       1  UNL1        0.1484
     22 C          63.8925   90.8540   14.8492 C.3     1  UNL1        0.1074
     23 C          65.3720   90.8296   14.6030 C.3     1  UNL1        0.1137
     24 N          66.1047   92.1051   14.3096 N.3     1  UNL1       -0.1679
     25 H          65.6930   92.4925   13.4606 H       1  UNL1        0.1499
     26 N          69.0752   92.0668   13.8921 N.3     1  UNL1       -0.1934
     27 S          67.5900   92.0859   14.1009 S.O2    1  UNL1        0.0927
     28 O          67.4072   92.6985   12.7439 O.2     1  UNL1       -0.1415
     29 O          67.7727   91.4734   15.4578 O.2     1  UNL1       -0.1415
     30 H          69.2947   92.4551   12.9749 H       1  UNL1        0.1453
     31 H          69.4135   91.1059   13.9444 H       1  UNL1        0.1453
@<TRIPOS>BOND
     1    26    27    1
     2    27    28    2
     3    27    29    2
     4    27    24    1
     5    24    23    1
     6    23    22    1
     7    22    20    1
     8    20     1    1
     9     1     2   ar
    10     2     3   ar
    11     3     4   ar
    12     4     5   ar
    13     5     6    1
    14     6     7    2
    15     7     8    1
    16     6    10    1
    17    10    12    1
    18    12    13   ar
    19    13    14   ar
    20    14    15   ar
    21    15    16    1
    22    15    17   ar
    23    17    18    1
    24    17    19   ar
    25     5     1   ar
    26    19    12   ar
    27    26    30    1
    28    26    31    1
    29    24    25    1
    30    20    21    1
    31     8     9    1
    32    10    11    1
@<TRIPOS>MOLECULE
*****
 31 32 0 0 0
SMALL
GASTEIGER

@<TRIPOS>ATOM
      1 C          62.6022   90.2376   12.2614 C.ar    1  UNL1        0.1986
      2 N          63.6105   91.0801   11.5378 N.ar    1  UNL1       -0.0331
      3 O          63.1653   91.2131   10.1115 O.2     1  UNL1       -0.2400
      4 N          61.8819   90.4528    9.9537 N.ar    1  UNL1       -0.0391
      5 C          61.5339   89.8500   11.2824 C.ar    1  UNL1        0.2426
      6 C          60.3290   89.0074   11.5798 C.2     1  UNL1        0.3943
      7 N          59.4694   89.3209   12.7685 N.2     1  UNL1        0.1539
      8 O          58.2646   88.4784   13.0659 O.2     1  UNL1       -0.3110
      9 H          57.7277   88.6742   13.8084 H       1  UNL1        0.3605
     10 N          59.9838   87.8513   10.6887 N.pl3   1  UNL1       -0.1942
     11 H          59.0900   87.7946   10.2799 H       1  UNL1        0.2987
     12 C          61.0004   86.7814   10.4203 C.ar    1  UNL1        0.1364
     13 C          61.6540   86.0641   11.5640 C.ar    1  UNL1        0.0425
     14 C          62.6706   84.9943   11.2957 C.ar    1  UNL1        0.0336
     15 C          63.0335   84.6418    9.8836 C.ar    1  UNL1        0.1465
     16 F          64.0501   83.5720    9.6152 F       1  UNL1       -0.2036
     17 C          62.3799   85.3591    8.7398 C.ar    1  UNL1        0.0654
     18 BR         62.7428   85.0066    7.3277 Br      1  UNL1       -0.0465
     19 C          61.3633   86.4290    9.0081 C.ar    1  UNL1        0.0491
     20 N          62.6532   89.8507   13.7097 N.pl3   1  UNL1       -0.3127
     21 H          61.8724   90.0067   14.2887 H       1  UNL1        0.1484
     22 C          63.8938   89.2263   14.2760 C.3     1  UNL1        0.1074
     23 C          65.0800   90.0823   14.6080 C.3     1  UNL1        0.1137
     24 N          64.9288   91.5721   14.6958 N.3     1  UNL1       -0.1679
     25 H          65.7409   91.9784   14.2313 H       1  UNL1        0.1499
     26 N          64.7085   92.9021   17.3758 N.3     1  UNL1       -0.1934
     27 S          64.8186   92.2371   16.0358 S.O2    1  UNL1        0.0927
     28 O          63.4062   91.7481   16.1624 O.2     1  UNL1       -0.1415
     29 O          66.2310   92.7261   15.9092 O.2     1  UNL1       -0.1415
     30 H          63.7781   92.7394   17.7607 H       1  UNL1        0.1453
     31 H          64.8626   93.9050   17.2714 H       1  UNL1        0.1453
@<TRIPOS>BOND
     1    26    27    1
     2    27    28    2
     3    27    29    2
     4    27    24    1
     5    24    23    1
     6    23    22    1
     7    22    20    1
     8    20     1    1
     9     1     2   ar
    10     2     3   ar
    11     3     4   ar
    12     4     5   ar
    13     5     6    1
    14     6     7    2
    15     7     8    1
    16     6    10    1
    17    10    12    1
    18    12    13   ar
    19    13    14   ar
    20    14    15   ar
    21    15    16    1
    22    15    17   ar
    23    17    18    1
    24    17    19   ar
    25     5     1   ar
    26    19    12   ar
    27    26    30    1
    28    26    31    1
    29    24    25    1
    30    20    21    1
    31     8     9    1
    32    10    11    1
@<TRIPOS>MOLECULE
*****
 31 32 0 0 0
SMALL
GASTEIGER

@<TRIPOS>ATOM
      1 C          61.1423   88.0555   10.8126 C.ar    1  UNL1        0.1986
      2 N          60.5571   88.6133    9.5491 N.ar    1  UNL1       -0.0331
      3 O          61.0002   90.0409    9.4238 O.2     1  UNL1       -0.2400
      4 N          61.8592   90.3654   10.6100 N.ar    1  UNL1       -0.0391
      5 C          61.9470   89.1384   11.4683 C.ar    1  UNL1        0.2426
      6 C          62.7061   89.0157   12.7562 C.2     1  UNL1        0.3943
      7 N          63.4768   87.7642   13.0562 N.2     1  UNL1        0.1539
      8 O          64.2360   87.6416   14.3441 O.2     1  UNL1       -0.3110
      9 H          64.7174   86.8599   14.5315 H       1  UNL1        0.3605
     10 N          62.6947   90.1444   13.7440 N.pl3   1  UNL1       -0.1942
     11 H          61.8912   90.3156   14.2866 H       1  UNL1        0.2987
     12 C          63.9074   91.0124   13.9051 C.ar    1  UNL1        0.1364
     13 C          64.5524   91.1575   15.2515 C.ar    1  UNL1        0.0425
     14 C          65.7651   92.0255   15.4126 C.ar    1  UNL1        0.0336
     15 C          66.3327   92.7485   14.2273 C.ar    1  UNL1        0.1465
     16 F          67.5454   93.6165   14.3884 F       1  UNL1       -0.2036
     17 C          65.6877   92.6035   12.8808 C.ar    1  UNL1        0.0654
     18 BR         66.2554   93.3265   11.6955 Br      1  UNL1       -0.0465
     19 C          64.4750   91.7355   12.7197 C.ar    1  UNL1        0.0491
     20 N          60.9555   86.6599   11.3297 N.pl3   1  UNL1       -0.3127
     21 H          60.2238   86.4615   11.9579 H       1  UNL1        0.1484
     22 C          61.8832   85.5666   10.8896 C.3     1  UNL1        0.1074
     23 C          62.3525   84.5387   11.8762 C.3     1  UNL1        0.1137
     24 N          62.7738   84.9583   13.2533 N.3     1  UNL1       -0.1679
     25 H          63.7380   85.2826   13.1802 H       1  UNL1        0.1499
     26 N          62.6923   82.9865   15.5129 N.3     1  UNL1       -0.1934
     27 S          62.7330   83.9724   14.3831 S.O2    1  UNL1        0.0927
     28 O          62.6748   82.8441   13.3964 O.2     1  UNL1       -0.1415
     29 O          62.7913   85.1007   15.3698 O.2     1  UNL1       -0.1415
     30 H          62.6457   82.0397   15.1364 H       1  UNL1        0.1453
     31 H          61.8698   83.1639   16.0895 H       1  UNL1        0.1453
@<TRIPOS>BOND
     1    26    27    1
     2    27    28    2
     3    27    29    2
     4    27    24    1
     5    24    23    1
     6    23    22    1
     7    22    20    1
     8    20     1    1
     9     1     2   ar
    10     2     3   ar
    11     3     4   ar
    12     4     5   ar
    13     5     6    1
    14     6     7    2
    15     7     8    1
    16     6    10    1
    17    10    12    1
    18    12    13   ar
    19    13    14   ar
    20    14    15   ar
    21    15    16    1
    22    15    17   ar
    23    17    18    1
    24    17    19   ar
    25     5     1   ar
    26    19    12   ar
    27    26    30    1
    28    26    31    1
    29    24    25    1
    30    20    21    1
    31     8     9    1
    32    10    11    1
@<TRIPOS>MOLECULE
*****
 31 32 0 0 0
SMALL
GASTEIGER

@<TRIPOS>ATOM
      1 C          63.9152   91.1189   12.9085 C.ar    1  UNL1        0.1986
      2 N          64.3555   91.2803   14.3333 N.ar    1  UNL1       -0.0331
      3 O          63.4492   90.4523   15.1952 O.2     1  UNL1       -0.2400
      4 N          62.4486   89.7792   14.3031 N.ar    1  UNL1       -0.0391
      5 C          62.7366   90.1912   12.8898 C.ar    1  UNL1        0.2426
      6 C          61.9791   89.7525   11.6718 C.2     1  UNL1        0.3943
      7 N          61.9661   90.6160   10.4452 N.2     1  UNL1        0.1539
      8 O          61.2086   90.1773    9.2272 O.2     1  UNL1       -0.3110
      9 H          61.2005   90.7167    8.4610 H       1  UNL1        0.3605
     10 N          61.2345   88.4504   11.6802 N.pl3   1  UNL1       -0.1942
     11 H          60.3482   88.3929   12.1048 H       1  UNL1        0.2987
     12 C          61.8405   87.2358   11.0417 C.ar    1  UNL1        0.1364
     13 C          62.0418   87.1911    9.5560 C.ar    1  UNL1        0.0425
     14 C          62.6478   85.9765    8.9175 C.ar    1  UNL1        0.0336
     15 C          63.0523   84.8067    9.7647 C.ar    1  UNL1        0.1465
     16 F          63.6583   83.5921    9.1262 F       1  UNL1       -0.2036
     17 C          62.8510   84.8514   11.2505 C.ar    1  UNL1        0.0654
     18 BR         63.2556   83.6816   12.0977 Br      1  UNL1       -0.0465
     19 C          62.2451   86.0660   11.8890 C.ar    1  UNL1        0.0491
     20 N          64.5431   91.7709   11.7124 N.pl3   1  UNL1       -0.3127
     21 H          64.3414   91.4384   10.8080 H       1  UNL1        0.1484
     22 C          65.4783   92.9294   11.8942 C.3     1  UNL1        0.1074
     23 C          65.9083   93.7396   10.7074 C.3     1  UNL1        0.1137
     24 N          67.3678   93.9436   10.4276 N.3     1  UNL1       -0.1679
     25 H          67.4793   94.9158   10.1396 H       1  UNL1        0.1499
     26 N          68.7478   92.2643    8.3598 N.3     1  UNL1       -0.1934
     27 S          68.0578   93.1040    9.3937 S.O2    1  UNL1        0.0927
     28 O          67.5944   94.0443    8.3208 O.2     1  UNL1       -0.1415
     29 O          68.5212   92.1637   10.4666 O.2     1  UNL1       -0.1415
     30 H          68.6071   92.6768    7.4376 H       1  UNL1        0.1453
     31 H          68.3594   91.3212    8.3733 H       1  UNL1        0.1453
@<TRIPOS>BOND
     1    26    27    1
     2    27    28    2
     3    27    29    2
     4    27    24    1
     5    24    23    1
     6    23    22    1
     7    22    20    1
     8    20     1    1
     9     1     2   ar
    10     2     3   ar
    11     3     4   ar
    12     4     5   ar
    13     5     6    1
    14     6     7    2
    15     7     8    1
    16     6    10    1
    17    10    12    1
    18    12    13   ar
    19    13    14   ar
    20    14    15   ar
    21    15    16    1
    22    15    17   ar
    23    17    18    1
    24    17    19   ar
    25     5     1   ar
    26    19    12   ar
    27    26    30    1
    28    26    31    1
    29    24    25    1
    30    20    21    1
    31     8     9    1
    32    10    11    1
@<TRIPOS>MOLECULE
*****
 31 32 0 0 0
SMALL
GASTEIGER

@<TRIPOS>ATOM
      1 C          62.0532   86.5305   11.1368 C.ar    1  UNL1        0.1986
      2 N          61.4486   86.2953    9.7844 N.ar    1  UNL1       -0.0331
      3 O          61.3832   87.6129    9.0704 O.2     1  UNL1       -0.2400
      4 N          61.9474   88.6623    9.9816 N.ar    1  UNL1       -0.0391
      5 C          62.3615   87.9934   11.2588 C.ar    1  UNL1        0.2426
      6 C          62.9759   88.6688   12.4488 C.2     1  UNL1        0.3943
      7 N          63.8219   87.8808   13.4046 N.2     1  UNL1        0.1539
      8 O          64.4364   88.5562   14.5946 O.2     1  UNL1       -0.3110
      9 H          64.9648   88.0639   15.1917 H       1  UNL1        0.3605
     10 N          62.7445   90.1322   12.6832 N.pl3   1  UNL1       -0.1942
     11 H          61.8991   90.4389   13.0838 H       1  UNL1        0.2987
     12 C          63.8010   91.1283   12.3070 C.ar    1  UNL1        0.1364
     13 C          63.9537   91.5559   10.8774 C.ar    1  UNL1        0.0425
     14 C          65.0103   92.5520   10.5013 C.ar    1  UNL1        0.0336
     15 C          65.9141   93.1205   11.5548 C.ar    1  UNL1        0.1465
     16 F          66.9707   94.1166   11.1786 F       1  UNL1       -0.2036
     17 C          65.7614   92.6929   12.9845 C.ar    1  UNL1        0.0654
     18 BR         66.6653   93.2614   14.0379 Br      1  UNL1       -0.0465
     19 C          64.7049   91.6968   13.3606 C.ar    1  UNL1        0.0491
     20 N          62.3052   85.4861   12.1836 N.pl3   1  UNL1       -0.3127
     21 H          62.2451   85.7210   13.1378 H       1  UNL1        0.1484
     22 C          62.6490   84.0840   11.7767 C.3     1  UNL1        0.1074
     23 C          64.0680   83.6052   11.8605 C.3     1  UNL1        0.1137
     24 N          64.6010   83.0614   13.1528 N.3     1  UNL1       -0.1679
     25 H          64.9194   82.1111   12.9634 H       1  UNL1        0.1499
     26 N          62.8235   82.9145   15.5651 N.3     1  UNL1       -0.1934
     27 S          63.7123   82.9879   14.3590 S.O2    1  UNL1        0.0927
     28 O          63.4725   81.5312   14.0936 O.2     1  UNL1       -0.1415
     29 O          63.9521   84.4447   14.6244 O.2     1  UNL1       -0.1415
     30 H          62.4683   81.9639   15.6683 H       1  UNL1        0.1453
     31 H          62.0414   83.5592   15.4509 H       1  UNL1        0.1453
@<TRIPOS>BOND
     1    26    27    1
     2    27    28    2
     3    27    29    2
     4    27    24    1
     5    24    23    1
     6    23    22    1
     7    22    20    1
     8    20     1    1
     9     1     2   ar
    10     2     3   ar
    11     3     4   ar
    12     4     5   ar
    13     5     6    1
    14     6     7    2
    15     7     8    1
    16     6    10    1
    17    10    12    1
    18    12    13   ar
    19    13    14   ar
    20    14    15   ar
    21    15    16    1
    22    15    17   ar
    23    17    18    1
    24    17    19   ar
    25     5     1   ar
    26    19    12   ar
    27    26    30    1
    28    26    31    1
    29    24    25    1
    30    20    21    1
    31     8     9    1
    32    10    11    1
