@<TRIPOS>MOLECULE
*****
 25 27 0 0 0
SMALL
GASTEIGER

@<TRIPOS>ATOM
      1 N          61.6591   89.6691   11.4643 N.am    1  UNL1       -0.2969
      2 C          62.9023   89.4070   12.2616 C.2     1  UNL1        0.2461
      3 O          63.1572   88.0409   12.8262 O.2     1  UNL1       -0.2701
      4 H          61.4918   90.5657   11.0938 H       1  UNL1        0.1501
      5 C          63.8907   90.5111   12.4944 C.ar    1  UNL1        0.0540
      6 C          64.2271   91.4629   11.3849 C.ar    1  UNL1        0.0061
      7 C          65.2154   92.5669   11.6177 C.ar    1  UNL1        0.0198
      8 C          65.8674   92.7192   12.9599 C.ar    1  UNL1        0.0892
      9 N          66.8722   93.7032   13.4819 N.ar    1  UNL1       -0.2245
     10 C          67.1567   93.3595   14.9140 C.ar    1  UNL1        0.1567
     11 N          68.1038   94.0849   15.8234 N.pl3   1  UNL1       -0.3375
     12 S          66.3279   92.1632   15.2771 S.2     1  UNL1       -0.0520
     13 C          65.5311   91.7674   14.0694 C.ar    1  UNL1        0.0498
     14 C          64.5428   90.6634   13.8366 C.ar    1  UNL1        0.0126
     15 H          68.6058   94.8639   15.4912 H       1  UNL1        0.1442
     16 H          68.2234   93.7819   16.7524 H       1  UNL1        0.1442
     17 C          60.6707   88.5650   11.2316 C.3     1  UNL1        0.1166
     18 C          61.1654   85.8076    7.7099 C.ar    1  UNL1        0.0684
     19 C          59.8892   86.5757    7.8877 C.ar    1  UNL1        0.0100
     20 C          59.7243   87.4947    9.0616 C.ar    1  UNL1       -0.0019
     21 C          60.8356   87.6459   10.0577 C.ar    1  UNL1       -0.0025
     22 C          62.1117   86.8779    9.8799 C.ar    1  UNL1       -0.0019
     23 C          62.2767   85.9588    8.7060 C.ar    1  UNL1        0.0100
     24 N          61.4951   83.9694    5.3621 N.1     1  UNL1       -0.1908
     25 C          61.3303   84.8885    6.5360 C.1     1  UNL1        0.1004
@<TRIPOS>BOND
     1    24    25    3
     2    25    18    1
     3    18    19   ar
     4    19    20   ar
     5    20    21   ar
     6    21    17    1
     7    17     1    1
     8     1     2   am
     9     2     3    2
    10     2     5    1
    11     5     6   ar
    12     6     7   ar
    13     7     8   ar
    14     8     9   ar
    15     9    10   ar
    16    10    11    1
    17    10    12   ar
    18    12    13   ar
    19    13    14   ar
    20    21    22   ar
    21    22    23   ar
    22    23    18   ar
    23    14     5   ar
    24    13     8   ar
    25     1     4    1
    26    11    15    1
    27    11    16    1
@<TRIPOS>MOLECULE
*****
 25 27 0 0 0
SMALL
GASTEIGER

@<TRIPOS>ATOM
      1 N          61.6714   89.4479   11.3812 N.am    1  UNL1       -0.2969
      2 C          62.9378   89.2815   12.1675 C.2     1  UNL1        0.2461
      3 O          63.2819   87.9479   12.7617 O.2     1  UNL1       -0.2701
      4 H          61.4455   90.3232   10.9912 H       1  UNL1        0.1501
      5 C          63.8602   90.4487   12.3597 C.ar    1  UNL1        0.0540
      6 C          64.5289   90.6659   13.6847 C.ar    1  UNL1        0.0061
      7 C          65.4513   91.8331   13.8768 C.ar    1  UNL1        0.0198
      8 C          65.7049   92.7830   12.7440 C.ar    1  UNL1        0.0892
      9 N          66.5574   94.0127   12.6370 N.ar    1  UNL1       -0.2245
     10 C          66.4154   94.5553   11.2458 C.ar    1  UNL1        0.1567
     11 N          67.0944   95.7777   10.7027 N.pl3   1  UNL1       -0.3375
     12 S          65.4753   93.6611   10.4931 S.2     1  UNL1       -0.0520
     13 C          65.0362   92.5658   11.4190 C.ar    1  UNL1        0.0498
     14 C          64.1138   91.3986   11.2269 C.ar    1  UNL1        0.0126
     15 H          67.6974   96.3023   11.2775 H       1  UNL1        0.1442
     16 H          66.9371   96.0553    9.7713 H       1  UNL1        0.1442
     17 C          60.7489   88.2807   11.1890 C.3     1  UNL1        0.1166
     18 C          61.1929   85.6329    7.5776 C.ar    1  UNL1        0.0684
     19 C          59.9006   86.3532    7.8252 C.ar    1  UNL1        0.0100
     20 C          59.7526   87.2358    9.0290 C.ar    1  UNL1       -0.0019
     21 C          60.8969   87.3981    9.9852 C.ar    1  UNL1       -0.0025
     22 C          62.1891   86.6779    9.7376 C.ar    1  UNL1       -0.0019
     23 C          62.3371   85.7952    8.5338 C.ar    1  UNL1        0.0100
     24 N          61.4888   83.8677    5.1701 N.1     1  UNL1       -0.1908
     25 C          61.3408   84.7503    6.3739 C.1     1  UNL1        0.1004
@<TRIPOS>BOND
     1    24    25    3
     2    25    18    1
     3    18    19   ar
     4    19    20   ar
     5    20    21   ar
     6    21    17    1
     7    17     1    1
     8     1     2   am
     9     2     3    2
    10     2     5    1
    11     5     6   ar
    12     6     7   ar
    13     7     8   ar
    14     8     9   ar
    15     9    10   ar
    16    10    11    1
    17    10    12   ar
    18    12    13   ar
    19    13    14   ar
    20    21    22   ar
    21    22    23   ar
    22    23    18   ar
    23    14     5   ar
    24    13     8   ar
    25     1     4    1
    26    11    15    1
    27    11    16    1
@<TRIPOS>MOLECULE
*****
 25 27 0 0 0
SMALL
GASTEIGER

@<TRIPOS>ATOM
      1 N          62.2203   88.0305   11.9612 N.am    1  UNL1       -0.2969
      2 C          62.1836   87.0730   10.8071 C.2     1  UNL1        0.2461
      3 O          61.7717   87.5532    9.4470 O.2     1  UNL1       -0.2701
      4 H          62.4906   87.7153   12.8538 H       1  UNL1        0.1501
      5 C          62.5587   85.6353   11.0131 C.ar    1  UNL1        0.0540
      6 C          63.1291   84.8389    9.8772 C.ar    1  UNL1        0.0061
      7 C          63.5043   83.4013   10.0832 C.ar    1  UNL1        0.0198
      8 C          63.3090   82.7601   11.4251 C.ar    1  UNL1        0.0892
      9 N          63.5840   81.3724   11.9241 N.ar    1  UNL1       -0.2245
     10 C          63.1836   81.3113   13.3683 C.ar    1  UNL1        0.1567
     11 N          63.2874   80.1111   14.2621 N.pl3   1  UNL1       -0.3375
     12 S          62.6611   82.6612   13.7620 S.2     1  UNL1       -0.0520
     13 C          62.7386   83.5565   12.5610 C.ar    1  UNL1        0.0498
     14 C          62.3635   84.9942   12.3550 C.ar    1  UNL1        0.0126
     15 H          63.6457   79.2645   13.9097 H       1  UNL1        0.1442
     16 H          62.9973   80.1699   15.2010 H       1  UNL1        0.1442
     17 C          61.8451   89.4682   11.7552 C.3     1  UNL1        0.1166
     18 C          65.0552   92.5811   11.2505 C.ar    1  UNL1        0.0684
     19 C          64.1828   92.2082   10.0886 C.ar    1  UNL1        0.0100
     20 C          63.1128   91.1706   10.2569 C.ar    1  UNL1       -0.0019
     21 C          62.9152   90.5058   11.5869 C.ar    1  UNL1       -0.0025
     22 C          63.7875   90.8787   12.7487 C.ar    1  UNL1       -0.0019
     23 C          64.8576   91.9164   12.5805 C.ar    1  UNL1        0.0100
     24 N          67.1953   94.6564   10.9140 N.1     1  UNL1       -0.1908
     25 C          66.1253   93.6188   11.0822 C.1     1  UNL1        0.1004
@<TRIPOS>BOND
     1    24    25    3
     2    25    18    1
     3    18    19   ar
     4    19    20   ar
     5    20    21   ar
     6    21    17    1
     7    17     1    1
     8     1     2   am
     9     2     3    2
    10     2     5    1
    11     5     6   ar
    12     6     7   ar
    13     7     8   ar
    14     8     9   ar
    15     9    10   ar
    16    10    11    1
    17    10    12   ar
    18    12    13   ar
    19    13    14   ar
    20    21    22   ar
    21    22    23   ar
    22    23    18   ar
    23    14     5   ar
    24    13     8   ar
    25     1     4    1
    26    11    15    1
    27    11    16    1
@<TRIPOS>MOLECULE
*****
 25 27 0 0 0
SMALL
GASTEIGER

@<TRIPOS>ATOM
      1 N          64.2611   88.3891   14.1808 N.am    1  UNL1       -0.2969
      2 C          63.8267   87.2812   15.0940 C.2     1  UNL1        0.2461
      3 O          63.3778   87.5931   16.4909 O.2     1  UNL1       -0.2701
      4 H          64.5557   88.1844   13.2640 H       1  UNL1        0.1501
      5 C          63.8412   85.8614   14.6103 C.ar    1  UNL1        0.0540
      6 C          64.1734   84.7489   15.5599 C.ar    1  UNL1        0.0061
      7 C          64.1879   83.3291   15.0762 C.ar    1  UNL1        0.0198
      8 C          63.8701   83.0219   13.6428 C.ar    1  UNL1        0.0892
      9 N          63.8062   81.7297   12.8836 N.ar    1  UNL1       -0.2245
     10 C          63.4345   82.0437   11.4648 C.ar    1  UNL1        0.1567
     11 N          63.2593   81.0465   10.3579 N.pl3   1  UNL1       -0.3375
     12 S          63.2686   83.5298   11.3471 S.2     1  UNL1       -0.0520
     13 C          63.5378   84.1344   12.6932 C.ar    1  UNL1        0.0498
     14 C          63.5234   85.5541   13.1769 C.ar    1  UNL1        0.0126
     15 H          63.3907   80.0870   10.5344 H       1  UNL1        0.1442
     16 H          63.0130   81.3517    9.4548 H       1  UNL1        0.1442
     17 C          64.2466   89.8090   14.6645 C.3     1  UNL1        0.1166
     18 C          65.9747   93.0776   12.0994 C.ar    1  UNL1        0.0684
     19 C          64.8042   92.2783   11.6082 C.ar    1  UNL1        0.0100
     20 C          64.2282   91.1887   12.4632 C.ar    1  UNL1       -0.0019
     21 C          64.8226   90.8985   13.8095 C.ar    1  UNL1       -0.0025
     22 C          65.9930   91.6977   14.3007 C.ar    1  UNL1       -0.0019
     23 C          66.5691   92.7873   13.4457 C.ar    1  UNL1        0.0100
     24 N          67.1267   95.2566   10.3893 N.1     1  UNL1       -0.1908
     25 C          66.5507   94.1671   11.2444 C.1     1  UNL1        0.1004
@<TRIPOS>BOND
     1    24    25    3
     2    25    18    1
     3    18    19   ar
     4    19    20   ar
     5    20    21   ar
     6    21    17    1
     7    17     1    1
     8     1     2   am
     9     2     3    2
    10     2     5    1
    11     5     6   ar
    12     6     7   ar
    13     7     8   ar
    14     8     9   ar
    15     9    10   ar
    16    10    11    1
    17    10    12   ar
    18    12    13   ar
    19    13    14   ar
    20    21    22   ar
    21    22    23   ar
    22    23    18   ar
    23    14     5   ar
    24    13     8   ar
    25     1     4    1
    26    11    15    1
    27    11    16    1
@<TRIPOS>MOLECULE
*****
 25 27 0 0 0
SMALL
GASTEIGER

@<TRIPOS>ATOM
      1 N          59.8652   90.1235    5.8812 N.am    1  UNL1       -0.2969
      2 C          59.2746   91.2078    5.0296 C.2     1  UNL1        0.2461
      3 O          57.8404   91.6074    5.2119 O.2     1  UNL1       -0.2701
      4 H          60.8066   89.8613    5.7615 H       1  UNL1        0.1501
      5 C          60.1183   91.8927    3.9955 C.ar    1  UNL1        0.0540
      6 C          59.5144   92.9415    3.1094 C.ar    1  UNL1        0.0061
      7 C          60.3580   93.6263    2.0754 C.ar    1  UNL1        0.0198
      8 C          61.8056   93.2622    1.9274 C.ar    1  UNL1        0.0892
      9 N          62.8771   93.7625    1.0045 N.ar    1  UNL1       -0.2245
     10 C          64.1432   93.0228    1.3201 C.ar    1  UNL1        0.1567
     11 N          65.4662   93.2079    0.6377 N.pl3   1  UNL1       -0.3375
     12 S          63.8543   92.0653    2.4381 S.2     1  UNL1       -0.0520
     13 C          62.4095   92.2133    2.8134 C.ar    1  UNL1        0.0498
     14 C          61.5659   91.5286    3.8474 C.ar    1  UNL1        0.0126
     15 H          65.5570   93.8649   -0.0899 H       1  UNL1        0.1442
     16 H          66.2435   92.6724    0.9173 H       1  UNL1        0.1442
     17 C          59.0216   89.4386    6.9153 C.3     1  UNL1        0.1166
     18 C          60.9702   86.9731   10.1362 C.ar    1  UNL1        0.0684
     19 C          60.8578   88.4605   10.2948 C.ar    1  UNL1        0.0100
     20 C          60.2082   89.2823    9.2213 C.ar    1  UNL1       -0.0019
     21 C          59.6711   88.6168    7.9889 C.ar    1  UNL1       -0.0025
     22 C          59.7835   87.1295    7.8302 C.ar    1  UNL1       -0.0019
     23 C          60.4331   86.3076    8.9038 C.ar    1  UNL1        0.0100
     24 N          62.2693   85.3295   12.2834 N.1     1  UNL1       -0.1908
     25 C          61.6197   86.1513   11.2098 C.1     1  UNL1        0.1004
@<TRIPOS>BOND
     1    24    25    3
     2    25    18    1
     3    18    19   ar
     4    19    20   ar
     5    20    21   ar
     6    21    17    1
     7    17     1    1
     8     1     2   am
     9     2     3    2
    10     2     5    1
    11     5     6   ar
    12     6     7   ar
    13     7     8   ar
    14     8     9   ar
    15     9    10   ar
    16    10    11    1
    17    10    12   ar
    18    12    13   ar
    19    13    14   ar
    20    21    22   ar
    21    22    23   ar
    22    23    18   ar
    23    14     5   ar
    24    13     8   ar
    25     1     4    1
    26    11    15    1
    27    11    16    1
@<TRIPOS>MOLECULE
*****
 25 27 0 0 0
SMALL
GASTEIGER

@<TRIPOS>ATOM
      1 N          63.1842   88.8252   13.1064 N.am    1  UNL1       -0.2969
      2 C          63.7669   87.5847   13.7159 C.2     1  UNL1        0.2461
      3 O          64.7185   87.6921   14.8705 O.2     1  UNL1       -0.2701
      4 H          62.5596   88.7547   12.3486 H       1  UNL1        0.1501
      5 C          63.3982   86.2367   13.1708 C.ar    1  UNL1        0.0540
      6 C          62.8329   86.1164   11.7867 C.ar    1  UNL1        0.0061
      7 C          62.4641   84.7685   11.2417 C.ar    1  UNL1        0.0198
      8 C          62.6607   83.5408   12.0809 C.ar    1  UNL1        0.0892
      9 N          62.3915   82.0894   11.8146 N.ar    1  UNL1       -0.2245
     10 C          62.7904   81.3126   13.0342 C.ar    1  UNL1        0.1567
     11 N          62.6910   79.8255   13.2041 N.pl3   1  UNL1       -0.3375
     12 S          63.3062   82.2840   14.0542 S.2     1  UNL1       -0.0520
     13 C          63.2260   83.6611   13.4650 C.ar    1  UNL1        0.0498
     14 C          63.5948   85.0090   14.0100 C.ar    1  UNL1        0.0126
     15 H          62.3371   79.2691   12.4731 H       1  UNL1        0.1442
     16 H          62.9797   79.4059   14.0466 H       1  UNL1        0.1442
     17 C          63.5529   90.1732   13.6514 C.3     1  UNL1        0.1166
     18 C          66.1017   92.9663   11.2117 C.ar    1  UNL1        0.0684
     19 C          64.8681   92.3594   10.6116 C.ar    1  UNL1        0.0100
     20 C          64.0185   91.4284   11.4249 C.ar    1  UNL1       -0.0019
     21 C          64.4025   91.1042   12.8382 C.ar    1  UNL1       -0.0025
     22 C          65.6360   91.7110   13.4383 C.ar    1  UNL1       -0.0019
     23 C          66.4857   92.6421   12.6250 C.ar    1  UNL1        0.0100
     24 N          67.8008   94.8283    9.5852 N.1     1  UNL1       -0.1908
     25 C          66.9513   93.8973   10.3985 C.1     1  UNL1        0.1004
@<TRIPOS>BOND
     1    24    25    3
     2    25    18    1
     3    18    19   ar
     4    19    20   ar
     5    20    21   ar
     6    21    17    1
     7    17     1    1
     8     1     2   am
     9     2     3    2
    10     2     5    1
    11     5     6   ar
    12     6     7   ar
    13     7     8   ar
    14     8     9   ar
    15     9    10   ar
    16    10    11    1
    17    10    12   ar
    18    12    13   ar
    19    13    14   ar
    20    21    22   ar
    21    22    23   ar
    22    23    18   ar
    23    14     5   ar
    24    13     8   ar
    25     1     4    1
    26    11    15    1
    27    11    16    1
@<TRIPOS>MOLECULE
*****
 25 27 0 0 0
SMALL
GASTEIGER

@<TRIPOS>ATOM
      1 N          63.1365   88.8331   12.7023 N.am    1  UNL1       -0.2969
      2 C          62.7152   88.0297   11.5077 C.2     1  UNL1        0.2461
      3 O          62.2992   88.7247   10.2452 O.2     1  UNL1       -0.2701
      4 H          63.4095   88.3769   13.5309 H       1  UNL1        0.1501
      5 C          62.7098   86.5312   11.5756 C.ar    1  UNL1        0.0540
      6 C          62.3199   85.7272   10.3708 C.ar    1  UNL1        0.0061
      7 C          62.3145   84.2288   10.4388 C.ar    1  UNL1        0.0198
      8 C          62.6991   83.5343   11.7115 C.ar    1  UNL1        0.0892
      9 N          62.7868   82.0817   12.0753 N.ar    1  UNL1       -0.2245
     10 C          63.2309   81.9880   13.5050 C.ar    1  UNL1        0.1567
     11 N          63.4499   80.7219   14.2790 N.pl3   1  UNL1       -0.3375
     12 S          63.4177   83.3826   14.0247 S.2     1  UNL1       -0.0520
     13 C          63.0890   84.3383   12.9163 C.ar    1  UNL1        0.0498
     14 C          63.0944   85.8367   12.8484 C.ar    1  UNL1        0.0126
     15 H          63.3001   79.8494   13.8483 H       1  UNL1        0.1442
     16 H          63.7433   80.7634   15.2179 H       1  UNL1        0.1442
     17 C          63.1418   90.3316   12.6344 C.3     1  UNL1        0.1166
     18 C          66.4705   92.6597   14.5708 C.ar    1  UNL1        0.0684
     19 C          66.1692   92.8524   13.1140 C.ar    1  UNL1        0.0100
     20 C          65.0596   92.0764   12.4686 C.ar    1  UNL1       -0.0019
     21 C          64.2514   91.1076   13.2798 C.ar    1  UNL1       -0.0025
     22 C          64.5527   90.9148   14.7365 C.ar    1  UNL1       -0.0019
     23 C          65.6623   91.6909   15.3820 C.ar    1  UNL1        0.0100
     24 N          68.6896   94.2118   15.8616 N.1     1  UNL1       -0.1908
     25 C          67.5801   93.4357   15.2162 C.1     1  UNL1        0.1004
@<TRIPOS>BOND
     1    24    25    3
     2    25    18    1
     3    18    19   ar
     4    19    20   ar
     5    20    21   ar
     6    21    17    1
     7    17     1    1
     8     1     2   am
     9     2     3    2
    10     2     5    1
    11     5     6   ar
    12     6     7   ar
    13     7     8   ar
    14     8     9   ar
    15     9    10   ar
    16    10    11    1
    17    10    12   ar
    18    12    13   ar
    19    13    14   ar
    20    21    22   ar
    21    22    23   ar
    22    23    18   ar
    23    14     5   ar
    24    13     8   ar
    25     1     4    1
    26    11    15    1
    27    11    16    1
@<TRIPOS>MOLECULE
*****
 25 27 0 0 0
SMALL
GASTEIGER

@<TRIPOS>ATOM
      1 N          63.9863   88.4873   13.9939 N.am    1  UNL1       -0.2969
      2 C          63.4440   87.4555   13.0498 C.2     1  UNL1        0.2461
      3 O          62.8124   87.8798   11.7572 O.2     1  UNL1       -0.2701
      4 H          64.4009   88.2088   14.8423 H       1  UNL1        0.1501
      5 C          63.5334   85.9992   13.3985 C.ar    1  UNL1        0.0540
      6 C          64.2419   85.5695   14.6487 C.ar    1  UNL1        0.0061
      7 C          64.3313   84.1133   14.9973 C.ar    1  UNL1        0.0198
      8 C          63.7120   83.0869   14.0956 C.ar    1  UNL1        0.0892
      9 N          63.6400   81.5909   14.1783 N.ar    1  UNL1       -0.2245
     10 C          62.8869   81.0961   12.9791 C.ar    1  UNL1        0.1567
     11 N          62.5809   79.6627   12.6597 N.pl3   1  UNL1       -0.3375
     12 S          62.4935   82.2863   12.1553 S.2     1  UNL1       -0.0520
     13 C          63.0034   83.5167   12.8453 C.ar    1  UNL1        0.0498
     14 C          62.9141   84.9729   12.4968 C.ar    1  UNL1        0.0126
     15 H          62.8833   78.9481   13.2656 H       1  UNL1        0.1442
     16 H          62.0778   79.4367   11.8443 H       1  UNL1        0.1442
     17 C          63.8970   89.9436   13.6452 C.3     1  UNL1        0.1166
     18 C          66.9863   92.8229   15.1995 C.ar    1  UNL1        0.0684
     19 C          65.8498   92.3947   16.0800 C.ar    1  UNL1        0.0100
     20 C          64.8201   91.4349   15.5619 C.ar    1  UNL1       -0.0019
     21 C          64.9267   90.9033   14.1633 C.ar    1  UNL1       -0.0025
     22 C          66.0631   91.3315   13.2828 C.ar    1  UNL1       -0.0019
     23 C          67.0929   92.2913   13.8009 C.ar    1  UNL1        0.0100
     24 N          69.0457   94.7424   16.2357 N.1     1  UNL1       -0.1908
     25 C          68.0160   93.7827   15.7176 C.1     1  UNL1        0.1004
@<TRIPOS>BOND
     1    24    25    3
     2    25    18    1
     3    18    19   ar
     4    19    20   ar
     5    20    21   ar
     6    21    17    1
     7    17     1    1
     8     1     2   am
     9     2     3    2
    10     2     5    1
    11     5     6   ar
    12     6     7   ar
    13     7     8   ar
    14     8     9   ar
    15     9    10   ar
    16    10    11    1
    17    10    12   ar
    18    12    13   ar
    19    13    14   ar
    20    21    22   ar
    21    22    23   ar
    22    23    18   ar
    23    14     5   ar
    24    13     8   ar
    25     1     4    1
    26    11    15    1
    27    11    16    1
@<TRIPOS>MOLECULE
*****
 25 27 0 0 0
SMALL
GASTEIGER

@<TRIPOS>ATOM
      1 N          62.4163   89.6170   11.0333 N.am    1  UNL1       -0.2969
      2 C          63.2631   89.5918   12.2711 C.2     1  UNL1        0.2461
      3 O          63.1723   88.4324   13.2184 O.2     1  UNL1       -0.2701
      4 H          62.4759   90.3779   10.4115 H       1  UNL1        0.1501
      5 C          64.2008   90.7260   12.5615 C.ar    1  UNL1        0.0540
      6 C          64.4245   91.7960   11.5344 C.ar    1  UNL1        0.0061
      7 C          65.3622   92.9301   11.8249 C.ar    1  UNL1        0.0198
      8 C          66.0762   92.9942   13.1425 C.ar    1  UNL1        0.0892
      9 N          67.0524   93.9829   13.7080 N.ar    1  UNL1       -0.2245
     10 C          67.4320   93.5239   15.0846 C.ar    1  UNL1        0.1567
     11 N          68.3856   94.2157   16.0131 N.pl3   1  UNL1       -0.3375
     12 S          66.6905   92.2515   15.3699 S.2     1  UNL1       -0.0520
     13 C          65.8526   91.9242   14.1696 C.ar    1  UNL1        0.0498
     14 C          64.9149   90.7901   13.8791 C.ar    1  UNL1        0.0126
     15 H          68.8257   95.0509   15.7340 H       1  UNL1        0.1442
     16 H          68.5715   93.8345   16.9016 H       1  UNL1        0.1442
     17 C          61.4785   88.4828   10.7428 C.3     1  UNL1        0.1166
     18 C          63.0697   84.2918   10.3510 C.ar    1  UNL1        0.0684
     19 C          63.0368   85.1965    9.1549 C.ar    1  UNL1        0.0100
     20 C          62.5064   86.5934    9.2855 C.ar    1  UNL1       -0.0019
     21 C          62.0089   87.0858   10.6122 C.ar    1  UNL1       -0.0025
     22 C          62.0418   86.1812   11.8082 C.ar    1  UNL1       -0.0019
     23 C          62.5722   84.7841   11.6776 C.ar    1  UNL1        0.0100
     24 N          64.1305   81.4978   10.0897 N.1     1  UNL1       -0.1908
     25 C          63.6001   82.8948   10.2204 C.1     1  UNL1        0.1004
@<TRIPOS>BOND
     1    24    25    3
     2    25    18    1
     3    18    19   ar
     4    19    20   ar
     5    20    21   ar
     6    21    17    1
     7    17     1    1
     8     1     2   am
     9     2     3    2
    10     2     5    1
    11     5     6   ar
    12     6     7   ar
    13     7     8   ar
    14     8     9   ar
    15     9    10   ar
    16    10    11    1
    17    10    12   ar
    18    12    13   ar
    19    13    14   ar
    20    21    22   ar
    21    22    23   ar
    22    23    18   ar
    23    14     5   ar
    24    13     8   ar
    25     1     4    1
    26    11    15    1
    27    11    16    1
