@<TRIPOS>MOLECULE
*****
 41 46 0 0 0
SMALL
GASTEIGER

@<TRIPOS>ATOM
      1 C          60.8573   86.1382    8.8519 C.ar    1  UNL1        0.1667
      2 N          61.9301   85.1596    8.4758 N.ar    1  UNL1       -0.2239
      3 C          62.6741   84.7852    9.7233 C.ar    1  UNL1        0.0893
      4 C          63.8305   83.8604    9.9629 C.ar    1  UNL1        0.0202
      5 C          64.3739   83.6829   11.3496 C.ar    1  UNL1        0.0081
      6 C          63.7609   84.4301   12.4968 C.ar    1  UNL1        0.0329
      7 C          62.6045   85.3549   12.2572 C.ar    1  UNL1        0.0146
      8 C          62.0611   85.5324   10.8704 C.ar    1  UNL1        0.0502
      9 S          60.9383   86.3686   10.3319 S.2     1  UNL1       -0.0513
     10 O          60.7933   89.1218    8.5448 O.2     1  UNL1       -0.2524
     11 C          59.8439   88.2664    7.7593 C.2     1  UNL1        0.3059
     12 N          58.8624   88.9029    6.8203 N.am    1  UNL1       -0.2872
     13 N          59.8759   86.7747    7.9129 N.am    1  UNL1       -0.2485
     14 H          58.2393   88.3415    6.3048 H       1  UNL1        0.1510
     15 H          59.2527   86.2133    7.3973 H       1  UNL1        0.1583
     16 C          58.8305   90.3947    6.6668 C.3     1  UNL1        0.1082
     17 C          58.5042   91.0049    5.3360 C.3     1  UNL1        0.0938
     18 N          59.6024   91.5477    4.4703 N.3     1  UNL1       -0.2670
     19 C          61.0017   91.0286    4.6204 C.3     1  UNL1        0.1047
     20 C          62.0999   91.5714    3.7548 C.3     1  UNL1        0.1595
     21 O          61.7988   92.6333    2.7391 O.3     1  UNL1       -0.3508
     22 C          60.3996   93.1524    2.5890 C.3     1  UNL1        0.1595
     23 C          59.3013   92.6096    3.4546 C.3     1  UNL1        0.1047
     24 S          64.3044   84.2525   13.8836 S.3     1  UNL1       -0.0470
     25 C          63.6468   84.9436   15.0411 C.ar    1  UNL1        0.2172
     26 N          62.8440   84.2828   16.1222 N.ar    1  UNL1       -0.1200
     27 N          62.3776   85.3477   17.0700 N.ar    1  UNL1       -0.1264
     28 C          62.8921   86.6668   16.5746 C.ar    1  UNL1        0.1873
     29 C          62.7477   88.0631   17.1033 C.ar    1  UNL1        0.0436
     30 C          63.3876   89.2096   16.3782 C.ar    1  UNL1        0.0390
     31 C          64.1721   88.9599   15.1242 C.ar    1  UNL1        0.1488
     32 N          64.3165   87.5636   14.5955 N.ar    1  UNL1       -0.1471
     33 N          63.6765   86.4170   15.3207 N.ar    1  UNL1       -0.1847
     34 N          64.8121   90.1063   14.3990 N.pl3   1  UNL1       -0.3184
     35 H          65.5601   90.5946   14.8130 H       1  UNL1        0.1482
     36 C          64.3124   90.5090   13.0432 C.3     1  UNL1        0.0704
     37 C          63.1812   89.7569   12.4070 C.3     1  UNL1        0.0195
     38 C          62.6816   90.1595   11.0512 C.3     1  UNL1        0.0017
     39 C          63.3130   91.3141   10.3316 C.3     1  UNL1        0.0001
     40 C          64.4442   92.0663   10.9678 C.3     1  UNL1        0.0017
     41 C          64.9439   91.6637   12.3236 C.3     1  UNL1        0.0195
@<TRIPOS>BOND
     1    10    11    2
     2    11    12   am
     3    12    16    1
     4    16    17    1
     5    17    18    1
     6    18    19    1
     7    19    20    1
     8    20    21    1
     9    21    22    1
    10    22    23    1
    11    11    13   am
    12    13     1    1
    13     1     2   ar
    14     2     3   ar
    15     3     4   ar
    16     4     5   ar
    17     5     6   ar
    18     6    24    1
    19    24    25    1
    20    25    26   ar
    21    26    27   ar
    22    27    28   ar
    23    28    29   ar
    24    29    30   ar
    25    30    31   ar
    26    31    34    1
    27    34    36    1
    28    36    37    1
    29    37    38    1
    30    38    39    1
    31    39    40    1
    32    40    41    1
    33    31    32   ar
    34    32    33   ar
    35     6     7   ar
    36     7     8   ar
    37     8     9   ar
    38    23    18    1
    39     9     1   ar
    40     8     3   ar
    41    33    25   ar
    42    33    28   ar
    43    41    36    1
    44    12    14    1
    45    13    15    1
    46    34    35    1
@<TRIPOS>MOLECULE
*****
 41 46 0 0 0
SMALL
GASTEIGER

@<TRIPOS>ATOM
      1 C          63.2233   85.1743   16.0046 C.ar    1  UNL1        0.1667
      2 N          62.4987   86.2310   16.7845 N.ar    1  UNL1       -0.2239
      3 C          63.0609   87.5649   16.3910 C.ar    1  UNL1        0.0893
      4 C          62.7351   88.9610   16.8322 C.ar    1  UNL1        0.0202
      5 C          63.4814   90.1248   16.2502 C.ar    1  UNL1        0.0081
      6 C          64.5534   89.8924   15.2272 C.ar    1  UNL1        0.0329
      7 C          64.8792   88.4963   14.7860 C.ar    1  UNL1        0.0146
      8 C          64.1329   87.3325   15.3680 C.ar    1  UNL1        0.0502
      9 S          64.2333   85.8551   15.1291 S.2     1  UNL1       -0.0513
     10 O          61.9994   83.7252   13.6803 O.2     1  UNL1       -0.2524
     11 C          62.3686   82.9717   14.9238 C.2     1  UNL1        0.3059
     12 N          62.1258   81.4938   15.0051 N.am    1  UNL1       -0.2872
     13 N          62.9805   83.6963   16.0859 N.am    1  UNL1       -0.2485
     14 H          62.3681   80.9993   15.8212 H       1  UNL1        0.1510
     15 H          63.2228   83.2018   16.9020 H       1  UNL1        0.1583
     16 C          61.5138   80.7692   13.8429 C.3     1  UNL1        0.1082
     17 C          62.3759   80.3224   12.6995 C.3     1  UNL1        0.0938
     18 N          63.2538   81.3111   11.9912 N.3     1  UNL1       -0.2670
     19 C          63.0871   81.5419   10.5184 C.3     1  UNL1        0.1047
     20 C          63.9650   82.5306    9.8101 C.3     1  UNL1        0.1595
     21 O          65.0097   83.2884   10.5745 O.3     1  UNL1       -0.3508
     22 C          65.1765   83.0576   12.0472 C.3     1  UNL1        0.1595
     23 C          64.2985   82.0689   12.7556 C.3     1  UNL1        0.1047
     24 S          65.2997   91.0562   14.6452 S.3     1  UNL1       -0.0470
     25 C          64.9542   91.5593   13.2750 C.ar    1  UNL1        0.2172
     26 N          65.4679   92.8188   12.6427 N.ar    1  UNL1       -0.1200
     27 N          64.8656   92.9292   11.2734 N.ar    1  UNL1       -0.1264
     28 C          63.9796   91.7378   11.0595 C.ar    1  UNL1        0.1873
     29 C          63.1300   91.3145    9.8980 C.ar    1  UNL1        0.0436
     30 C          62.3352   90.0446    9.9735 C.ar    1  UNL1        0.0390
     31 C          62.3900   89.1980   11.2106 C.ar    1  UNL1        0.1488
     32 N          63.2396   89.6213   12.3721 N.ar    1  UNL1       -0.1471
     33 N          64.0344   90.8912   12.2965 N.ar    1  UNL1       -0.1847
     34 N          61.5952   87.9282   11.2862 N.pl3   1  UNL1       -0.3184
     35 H          61.3098   87.5774   12.1607 H       1  UNL1        0.1482
     36 C          61.2353   87.1927   10.0294 C.3     1  UNL1        0.0704
     37 C          59.8688   87.3528    9.4320 C.3     1  UNL1        0.0195
     38 C          59.5089   86.6173    8.1752 C.3     1  UNL1        0.0017
     39 C          60.5154   85.7217    7.5158 C.3     1  UNL1        0.0001
     40 C          61.8820   85.5616    8.1133 C.3     1  UNL1        0.0017
     41 C          62.2419   86.2971    9.3700 C.3     1  UNL1        0.0195
@<TRIPOS>BOND
     1    10    11    2
     2    11    12   am
     3    12    16    1
     4    16    17    1
     5    17    18    1
     6    18    19    1
     7    19    20    1
     8    20    21    1
     9    21    22    1
    10    22    23    1
    11    11    13   am
    12    13     1    1
    13     1     2   ar
    14     2     3   ar
    15     3     4   ar
    16     4     5   ar
    17     5     6   ar
    18     6    24    1
    19    24    25    1
    20    25    26   ar
    21    26    27   ar
    22    27    28   ar
    23    28    29   ar
    24    29    30   ar
    25    30    31   ar
    26    31    34    1
    27    34    36    1
    28    36    37    1
    29    37    38    1
    30    38    39    1
    31    39    40    1
    32    40    41    1
    33    31    32   ar
    34    32    33   ar
    35     6     7   ar
    36     7     8   ar
    37     8     9   ar
    38    23    18    1
    39     9     1   ar
    40     8     3   ar
    41    33    25   ar
    42    33    28   ar
    43    41    36    1
    44    12    14    1
    45    13    15    1
    46    34    35    1
@<TRIPOS>MOLECULE
*****
 41 46 0 0 0
SMALL
GASTEIGER

@<TRIPOS>ATOM
      1 C          61.1224   85.9965    9.2486 C.ar    1  UNL1        0.1667
      2 N          62.1382   84.9133    9.0372 N.ar    1  UNL1       -0.2239
      3 C          62.8214   84.6563   10.3476 C.ar    1  UNL1        0.0893
      4 C          63.9073   83.6999   10.7428 C.ar    1  UNL1        0.0202
      5 C          64.3996   83.6681   12.1593 C.ar    1  UNL1        0.0081
      6 C          63.8061   84.5926   13.1806 C.ar    1  UNL1        0.0329
      7 C          62.7202   85.5489   12.7854 C.ar    1  UNL1        0.0146
      8 C          62.2279   85.5808   11.3689 C.ar    1  UNL1        0.0502
      9 S          61.1778   86.4091   10.6897 S.2     1  UNL1       -0.0513
     10 O          60.8739   88.9698    8.9359 O.2     1  UNL1       -0.2524
     11 C          60.0869   88.0537    8.0462 C.2     1  UNL1        0.3059
     12 N          59.1757   88.6242    7.0002 N.am    1  UNL1       -0.2872
     13 N          60.2112   86.5671    8.2025 N.am    1  UNL1       -0.2485
     14 H          58.6592   88.0230    6.4162 H       1  UNL1        0.1510
     15 H          59.6947   85.9658    7.6186 H       1  UNL1        0.1583
     16 C          59.0514   90.1109    6.8438 C.3     1  UNL1        0.1082
     17 C          58.6005   90.6925    5.5367 C.3     1  UNL1        0.0938
     18 N          59.5920   91.3620    4.6319 N.3     1  UNL1       -0.2670
     19 C          61.0307   90.9380    4.6513 C.3     1  UNL1        0.1047
     20 C          62.0222   91.6075    3.7465 C.3     1  UNL1        0.1595
     21 O          61.5750   92.7010    2.8223 O.3     1  UNL1       -0.3508
     22 C          60.1363   93.1251    2.8029 C.3     1  UNL1        0.1595
     23 C          59.1448   92.4556    3.7077 C.3     1  UNL1        0.1047
     24 S          64.2985   84.5607   14.5972 S.3     1  UNL1       -0.0470
     25 C          63.7312   85.5106   15.6100 C.ar    1  UNL1        0.2172
     26 N          63.0061   85.1299   16.8667 N.ar    1  UNL1       -0.1200
     27 N          62.6162   86.3920   17.5773 N.ar    1  UNL1       -0.1264
     28 C          63.1002   87.5528   16.7597 C.ar    1  UNL1        0.1873
     29 C          63.0025   89.0354   16.9652 C.ar    1  UNL1        0.0436
     30 C          63.5938   89.9733   15.9550 C.ar    1  UNL1        0.0390
     31 C          64.2829   89.4285   14.7391 C.ar    1  UNL1        0.1488
     32 N          64.3806   87.9459   14.5335 N.ar    1  UNL1       -0.1471
     33 N          63.7893   87.0080   15.5438 N.ar    1  UNL1       -0.1847
     34 N          64.8743   90.3663   13.7288 N.pl3   1  UNL1       -0.3184
     35 H          64.6123   90.2990   12.7822 H       1  UNL1        0.1482
     36 C          65.8647   91.4067   14.1608 C.3     1  UNL1        0.0704
     37 C          65.7368   92.8161   13.6636 C.3     1  UNL1        0.0195
     38 C          66.7272   93.8565   14.0956 C.3     1  UNL1        0.0017
     39 C          67.8455   93.4877   15.0247 C.3     1  UNL1        0.0001
     40 C          67.9735   92.0782   15.5219 C.3     1  UNL1        0.0017
     41 C          66.9830   91.0378   15.0899 C.3     1  UNL1        0.0195
@<TRIPOS>BOND
     1    10    11    2
     2    11    12   am
     3    12    16    1
     4    16    17    1
     5    17    18    1
     6    18    19    1
     7    19    20    1
     8    20    21    1
     9    21    22    1
    10    22    23    1
    11    11    13   am
    12    13     1    1
    13     1     2   ar
    14     2     3   ar
    15     3     4   ar
    16     4     5   ar
    17     5     6   ar
    18     6    24    1
    19    24    25    1
    20    25    26   ar
    21    26    27   ar
    22    27    28   ar
    23    28    29   ar
    24    29    30   ar
    25    30    31   ar
    26    31    34    1
    27    34    36    1
    28    36    37    1
    29    37    38    1
    30    38    39    1
    31    39    40    1
    32    40    41    1
    33    31    32   ar
    34    32    33   ar
    35     6     7   ar
    36     7     8   ar
    37     8     9   ar
    38    23    18    1
    39     9     1   ar
    40     8     3   ar
    41    33    25   ar
    42    33    28   ar
    43    41    36    1
    44    12    14    1
    45    13    15    1
    46    34    35    1
@<TRIPOS>MOLECULE
*****
 41 46 0 0 0
SMALL
GASTEIGER

@<TRIPOS>ATOM
      1 C          59.7179   87.6264    8.0256 C.ar    1  UNL1        0.1667
      2 N          60.5050   86.7074    7.1391 N.ar    1  UNL1       -0.2239
      3 C          61.4511   85.9275    8.0032 C.ar    1  UNL1        0.0893
      4 C          62.4707   84.8759    7.6801 C.ar    1  UNL1        0.0202
      5 C          63.2879   84.2613    8.7775 C.ar    1  UNL1        0.0081
      6 C          63.0854   84.6983   10.1981 C.ar    1  UNL1        0.0329
      7 C          62.0658   85.7499   10.5213 C.ar    1  UNL1        0.0146
      8 C          61.2486   86.3645    9.4238 C.ar    1  UNL1        0.0502
      9 S          60.1774   87.4145    9.4376 S.2     1  UNL1       -0.0513
     10 O          60.2268   89.4419    5.6920 O.2     1  UNL1       -0.2524
     11 C          58.9118   89.4961    6.4118 C.2     1  UNL1        0.3059
     12 N          57.8513   90.4581    5.9647 N.am    1  UNL1       -0.2872
     13 N          58.6574   88.5884    7.5785 N.am    1  UNL1       -0.2485
     14 H          56.9882   90.4938    6.4371 H       1  UNL1        0.1510
     15 H          57.7943   88.6241    8.0509 H       1  UNL1        0.1583
     16 C          58.1057   91.3659    4.7979 C.3     1  UNL1        0.1082
     17 C          59.2792   92.3000    4.8164 C.3     1  UNL1        0.0938
     18 N          60.1826   92.3930    3.6226 N.3     1  UNL1       -0.2670
     19 C          59.6726   92.9803    2.3400 C.3     1  UNL1        0.1047
     20 C          60.5759   93.0734    1.1462 C.3     1  UNL1        0.1595
     21 O          61.9894   92.5792    1.2349 O.3     1  UNL1       -0.3508
     22 C          62.4995   91.9919    2.5174 C.3     1  UNL1        0.1595
     23 C          61.5961   91.8988    3.7113 C.3     1  UNL1        0.1047
     24 S          63.9026   84.0836   11.2956 S.3     1  UNL1       -0.0470
     25 C          63.3135   83.9144   12.6646 C.ar    1  UNL1        0.2172
     26 N          62.5535   82.7180   13.1557 N.ar    1  UNL1       -0.1200
     27 N          62.1512   82.9760   14.5775 N.ar    1  UNL1       -0.1264
     28 C          62.6626   84.3319   14.9652 C.ar    1  UNL1        0.1873
     29 C          62.5670   85.1134   16.2419 C.ar    1  UNL1        0.0436
     30 C          63.1897   86.4747   16.3365 C.ar    1  UNL1        0.0390
     31 C          63.9080   87.0547   15.1543 C.ar    1  UNL1        0.1488
     32 N          64.0036   86.2732   13.8775 N.ar    1  UNL1       -0.1471
     33 N          63.3809   84.9118   13.7829 N.ar    1  UNL1       -0.1847
     34 N          64.5307   88.4159   15.2488 N.pl3   1  UNL1       -0.3184
     35 H          65.0593   88.6614   16.0422 H       1  UNL1        0.1482
     36 C          64.3479   89.4033   14.1345 C.3     1  UNL1        0.0704
     37 C          65.0840   90.7100   14.1621 C.3     1  UNL1        0.0195
     38 C          64.9012   91.6974   13.0478 C.3     1  UNL1        0.0017
     39 C          63.9825   91.3782   11.9059 C.3     1  UNL1        0.0001
     40 C          63.2463   90.0715   11.8783 C.3     1  UNL1        0.0017
     41 C          63.4291   89.0841   12.9926 C.3     1  UNL1        0.0195
@<TRIPOS>BOND
     1    10    11    2
     2    11    12   am
     3    12    16    1
     4    16    17    1
     5    17    18    1
     6    18    19    1
     7    19    20    1
     8    20    21    1
     9    21    22    1
    10    22    23    1
    11    11    13   am
    12    13     1    1
    13     1     2   ar
    14     2     3   ar
    15     3     4   ar
    16     4     5   ar
    17     5     6   ar
    18     6    24    1
    19    24    25    1
    20    25    26   ar
    21    26    27   ar
    22    27    28   ar
    23    28    29   ar
    24    29    30   ar
    25    30    31   ar
    26    31    34    1
    27    34    36    1
    28    36    37    1
    29    37    38    1
    30    38    39    1
    31    39    40    1
    32    40    41    1
    33    31    32   ar
    34    32    33   ar
    35     6     7   ar
    36     7     8   ar
    37     8     9   ar
    38    23    18    1
    39     9     1   ar
    40     8     3   ar
    41    33    25   ar
    42    33    28   ar
    43    41    36    1
    44    12    14    1
    45    13    15    1
    46    34    35    1
@<TRIPOS>MOLECULE
*****
 41 46 0 0 0
SMALL
GASTEIGER

@<TRIPOS>ATOM
      1 C          59.7756   88.8614    8.1711 C.ar    1  UNL1        0.1667
      2 N          60.2375   87.5225    8.6652 N.ar    1  UNL1       -0.2239
      3 C          61.1978   87.7512    9.7946 C.ar    1  UNL1        0.0893
      4 C          61.9694   86.8029   10.6636 C.ar    1  UNL1        0.0202
      5 C          62.8726   87.3348   11.7365 C.ar    1  UNL1        0.0081
      6 C          63.0043   88.8151   11.9404 C.ar    1  UNL1        0.0329
      7 C          62.2327   89.7634   11.0714 C.ar    1  UNL1        0.0146
      8 C          61.3295   89.2315    9.9984 C.ar    1  UNL1        0.0502
      9 S          60.4505   89.9175    8.9951 S.2     1  UNL1       -0.0513
     10 O          60.2051   91.1551    6.2858 O.2     1  UNL1       -0.2524
     11 C          59.0233   90.2486    6.1072 C.2     1  UNL1        0.3059
     12 N          58.0563   90.4891    4.9860 N.am    1  UNL1       -0.2872
     13 N          58.8086   89.1018    7.0499 N.am    1  UNL1       -0.2485
     14 H          57.2807   89.8941    4.8688 H       1  UNL1        0.1510
     15 H          58.0330   88.5069    6.9327 H       1  UNL1        0.1583
     16 C          58.2711   91.6360    4.0434 C.3     1  UNL1        0.1082
     17 C          59.5837   92.3619    4.0323 C.3     1  UNL1        0.0938
     18 N          60.2701   92.6507    2.7302 N.3     1  UNL1       -0.2670
     19 C          59.4633   93.0425    1.5278 C.3     1  UNL1        0.1047
     20 C          60.1496   93.3312    0.2257 C.3     1  UNL1        0.1595
     21 O          61.6428   93.2282    0.1259 O.3     1  UNL1       -0.3508
     22 C          62.4495   92.8365    1.3282 C.3     1  UNL1        0.1595
     23 C          61.7632   92.5477    2.6304 C.3     1  UNL1        0.1047
     24 S          63.9076   89.3469   13.0134 S.3     1  UNL1       -0.0470
     25 C          63.5107   89.2280   14.4550 C.ar    1  UNL1        0.2172
     26 N          63.0257   90.3448   15.3310 N.ar    1  UNL1       -0.1200
     27 N          62.7444   89.7784   16.6912 N.ar    1  UNL1       -0.1264
     28 C          63.0555   88.3114   16.6557 C.ar    1  UNL1        0.1873
     29 C          62.9688   87.2414   17.7033 C.ar    1  UNL1        0.0436
     30 C          63.3556   85.8312   17.3690 C.ar    1  UNL1        0.0390
     31 C          63.8293   85.4910   15.9870 C.ar    1  UNL1        0.1488
     32 N          63.9160   86.5611   14.9394 N.ar    1  UNL1       -0.1471
     33 N          63.5291   87.9713   15.2737 N.ar    1  UNL1       -0.1847
     34 N          64.2161   84.0810   15.6526 N.pl3   1  UNL1       -0.3184
     35 H          64.7862   83.5675   16.2695 H       1  UNL1        0.1482
     36 C          63.7345   83.4532   14.3783 C.3     1  UNL1        0.0704
     37 C          62.6034   82.4685   14.4081 C.3     1  UNL1        0.0195
     38 C          62.1217   81.8407   13.1338 C.3     1  UNL1        0.0017
     39 C          62.7711   82.1975   11.8297 C.3     1  UNL1        0.0001
     40 C          63.9023   83.1823   11.7998 C.3     1  UNL1        0.0017
     41 C          64.3839   83.8100   13.0741 C.3     1  UNL1        0.0195
@<TRIPOS>BOND
     1    10    11    2
     2    11    12   am
     3    12    16    1
     4    16    17    1
     5    17    18    1
     6    18    19    1
     7    19    20    1
     8    20    21    1
     9    21    22    1
    10    22    23    1
    11    11    13   am
    12    13     1    1
    13     1     2   ar
    14     2     3   ar
    15     3     4   ar
    16     4     5   ar
    17     5     6   ar
    18     6    24    1
    19    24    25    1
    20    25    26   ar
    21    26    27   ar
    22    27    28   ar
    23    28    29   ar
    24    29    30   ar
    25    30    31   ar
    26    31    34    1
    27    34    36    1
    28    36    37    1
    29    37    38    1
    30    38    39    1
    31    39    40    1
    32    40    41    1
    33    31    32   ar
    34    32    33   ar
    35     6     7   ar
    36     7     8   ar
    37     8     9   ar
    38    23    18    1
    39     9     1   ar
    40     8     3   ar
    41    33    25   ar
    42    33    28   ar
    43    41    36    1
    44    12    14    1
    45    13    15    1
    46    34    35    1
@<TRIPOS>MOLECULE
*****
 41 46 0 0 0
SMALL
GASTEIGER

@<TRIPOS>ATOM
      1 C          60.9526   93.6830    1.3496 C.ar    1  UNL1        0.1667
      2 N          62.0335   92.8046    1.9065 N.ar    1  UNL1       -0.2239
      3 C          61.4769   92.0835    3.0982 C.ar    1  UNL1        0.0893
      4 C          62.0834   91.0887    4.0429 C.ar    1  UNL1        0.0202
      5 C          61.2650   90.5266    5.1672 C.ar    1  UNL1        0.0081
      6 C          59.8400   90.9593    5.3469 C.ar    1  UNL1        0.0329
      7 C          59.2335   91.9540    4.4021 C.ar    1  UNL1        0.0146
      8 C          60.0519   92.5161    3.2778 C.ar    1  UNL1        0.0502
      9 S          59.7279   93.5046    2.1971 S.2     1  UNL1       -0.0513
     10 O          60.0162   92.7393   -1.3398 O.2     1  UNL1       -0.2524
     11 C          60.6067   94.1100   -1.1896 C.2     1  UNL1        0.3059
     12 N          60.7290   95.0089   -2.3843 N.am    1  UNL1       -0.2872
     13 N          61.0749   94.5818    0.1550 N.am    1  UNL1       -0.2485
     14 H          61.1166   95.9085   -2.2858 H       1  UNL1        0.1510
     15 H          61.4625   95.4815    0.2535 H       1  UNL1        0.1583
     16 C          60.2608   94.5370   -3.7290 C.3     1  UNL1        0.1082
     17 C          58.8328   94.7413   -4.1400 C.3     1  UNL1        0.0938
     18 N          57.7308   94.0527   -3.3908 N.3     1  UNL1       -0.2670
     19 C          56.9587   94.7962   -2.3415 C.3     1  UNL1        0.1047
     20 C          55.8567   94.1076   -1.5922 C.3     1  UNL1        0.1595
     21 O          55.5268   92.6754   -1.8923 O.3     1  UNL1       -0.3508
     22 C          56.2988   91.9319   -2.9415 C.3     1  UNL1        0.1595
     23 C          57.4009   92.6205   -3.6908 C.3     1  UNL1        0.1047
     24 S          59.0216   90.3971    6.4713 S.3     1  UNL1       -0.0470
     25 C          59.3934   89.0792    7.0836 C.ar    1  UNL1        0.2172
     26 N          59.2007   87.7301    6.4568 N.ar    1  UNL1       -0.1200
     27 N          59.7114   86.6961    7.4160 N.ar    1  UNL1       -0.1264
     28 C          60.2198   87.4062    8.6356 C.ar    1  UNL1        0.1873
     29 C          60.8362   86.9020    9.9067 C.ar    1  UNL1        0.0436
     30 C          61.2562   87.8704   10.9723 C.ar    1  UNL1        0.0390
     31 C          61.0597   89.3433   10.7669 C.ar    1  UNL1        0.1488
     32 N          60.4433   89.8476    9.4958 N.ar    1  UNL1       -0.1471
     33 N          60.0232   88.8790    8.4301 N.ar    1  UNL1       -0.1847
     34 N          61.4797   90.3118   11.8324 N.pl3   1  UNL1       -0.3184
     35 H          60.8727   90.5141   12.5807 H       1  UNL1        0.1482
     36 C          62.8244   90.9722   11.7580 C.3     1  UNL1        0.0704
     37 C          63.3360   91.4858   10.4449 C.3     1  UNL1        0.0195
     38 C          64.6808   92.1462   10.3704 C.3     1  UNL1        0.0017
     39 C          65.5140   92.2930   11.6090 C.3     1  UNL1        0.0001
     40 C          65.0024   91.7793   12.9223 C.3     1  UNL1        0.0017
     41 C          63.6576   91.1189   12.9967 C.3     1  UNL1        0.0195
@<TRIPOS>BOND
     1    10    11    2
     2    11    12   am
     3    12    16    1
     4    16    17    1
     5    17    18    1
     6    18    19    1
     7    19    20    1
     8    20    21    1
     9    21    22    1
    10    22    23    1
    11    11    13   am
    12    13     1    1
    13     1     2   ar
    14     2     3   ar
    15     3     4   ar
    16     4     5   ar
    17     5     6   ar
    18     6    24    1
    19    24    25    1
    20    25    26   ar
    21    26    27   ar
    22    27    28   ar
    23    28    29   ar
    24    29    30   ar
    25    30    31   ar
    26    31    34    1
    27    34    36    1
    28    36    37    1
    29    37    38    1
    30    38    39    1
    31    39    40    1
    32    40    41    1
    33    31    32   ar
    34    32    33   ar
    35     6     7   ar
    36     7     8   ar
    37     8     9   ar
    38    23    18    1
    39     9     1   ar
    40     8     3   ar
    41    33    25   ar
    42    33    28   ar
    43    41    36    1
    44    12    14    1
    45    13    15    1
    46    34    35    1
