@<TRIPOS>MOLECULE
*****
 18 20 0 0 0
SMALL
GASTEIGER

@<TRIPOS>ATOM
      1 O          65.9817   92.3068   15.3195 O.2     1  UNL1       -0.2748
      2 C          65.1664   91.4077   14.4381 C.2     1  UNL1        0.2264
      3 C          64.7615   90.0475   14.9237 C.3     1  UNL1        0.0901
      4 C          63.9462   89.1484   14.0423 C.3     1  UNL1        0.0372
      5 C          63.5357   89.6096   12.6752 C.ar    1  UNL1       -0.0082
      6 C          62.7204   88.7105   11.7938 C.ar    1  UNL1       -0.0030
      7 C          62.3099   89.1716   10.4268 C.ar    1  UNL1        0.0013
      8 C          62.7148   90.5319    9.9411 C.ar    1  UNL1        0.0013
      9 C          63.5301   91.4310   10.8225 C.ar    1  UNL1        0.0144
     10 C          63.9406   90.9698   12.1896 C.ar    1  UNL1        0.0463
     11 N          64.7559   91.8688   13.0711 N.am    1  UNL1       -0.2842
     12 H          65.0216   92.7616   12.7523 H       1  UNL1        0.1548
     13 C          61.4946   88.2726    9.5454 C.ar    1  UNL1        0.0192
     14 C          61.9454   86.8653    9.2875 C.ar    1  UNL1        0.0031
     15 C          61.1301   85.9662    8.4061 C.ar    1  UNL1        0.0207
     16 C          59.8639   86.4744    7.7825 C.ar    1  UNL1        0.0989
     17 N          59.4132   87.8816    8.0404 N.ar    1  UNL1       -0.2423
     18 C          60.2285   88.7807    8.9219 C.ar    1  UNL1        0.0988
@<TRIPOS>BOND
     1     1     2    2
     2     2     3    1
     3     3     4    1
     4     4     5    1
     5     5     6   ar
     6     6     7   ar
     7     7    13    1
     8    13    14   ar
     9    14    15   ar
    10    15    16   ar
    11    16    17   ar
    12    17    18   ar
    13     7     8   ar
    14     8     9   ar
    15     9    10   ar
    16    10    11    1
    17    11     2   am
    18    10     5   ar
    19    18    13   ar
    20    11    12    1
@<TRIPOS>MOLECULE
*****
 18 20 0 0 0
SMALL
GASTEIGER

@<TRIPOS>ATOM
      1 O          60.1791   88.5472   10.0610 O.2     1  UNL1       -0.2748
      2 C          61.3441   89.2795   10.6580 C.2     1  UNL1        0.2264
      3 C          61.9640   90.4298    9.9216 C.3     1  UNL1        0.0901
      4 C          63.1291   91.1622   10.5186 C.3     1  UNL1        0.0372
      5 C          63.6742   90.7442   11.8520 C.ar    1  UNL1       -0.0082
      6 C          64.8392   91.4765   12.4490 C.ar    1  UNL1       -0.0030
      7 C          65.3843   91.0586   13.7824 C.ar    1  UNL1        0.0013
      8 C          64.7643   89.9082   14.5190 C.ar    1  UNL1        0.0013
      9 C          63.5993   89.1759   13.9220 C.ar    1  UNL1        0.0144
     10 C          63.0542   89.5939   12.5885 C.ar    1  UNL1        0.0463
     11 N          61.8892   88.8616   11.9915 N.am    1  UNL1       -0.2842
     12 H          61.4823   88.1066   12.4749 H       1  UNL1        0.1548
     13 C          66.5493   91.7909   14.3794 C.ar    1  UNL1        0.0192
     14 C          66.4120   92.4545   15.7177 C.ar    1  UNL1        0.0031
     15 C          67.5771   93.1868   16.3147 C.ar    1  UNL1        0.0207
     16 C          68.8793   93.2556   15.5734 C.ar    1  UNL1        0.0989
     17 N          69.0165   92.5920   14.2352 N.ar    1  UNL1       -0.2423
     18 C          67.8515   91.8597   13.6382 C.ar    1  UNL1        0.0988
@<TRIPOS>BOND
     1     1     2    2
     2     2     3    1
     3     3     4    1
     4     4     5    1
     5     5     6   ar
     6     6     7   ar
     7     7    13    1
     8    13    14   ar
     9    14    15   ar
    10    15    16   ar
    11    16    17   ar
    12    17    18   ar
    13     7     8   ar
    14     8     9   ar
    15     9    10   ar
    16    10    11    1
    17    11     2   am
    18    10     5   ar
    19    18    13   ar
    20    11    12    1
@<TRIPOS>MOLECULE
*****
 18 20 0 0 0
SMALL
GASTEIGER

@<TRIPOS>ATOM
      1 O          67.0118   93.9242   13.9934 O.2     1  UNL1       -0.2748
      2 C          66.1011   93.1459   13.0908 C.2     1  UNL1        0.2264
      3 C          65.8622   93.6106   11.6847 C.3     1  UNL1        0.0901
      4 C          64.9515   92.8322   10.7821 C.3     1  UNL1        0.0372
      5 C          64.2796   91.5892   11.2855 C.ar    1  UNL1       -0.0082
      6 C          63.3688   90.8109   10.3829 C.ar    1  UNL1       -0.0030
      7 C          62.6969   89.5679   10.8863 C.ar    1  UNL1        0.0013
      8 C          62.9358   89.1032   12.2924 C.ar    1  UNL1        0.0013
      9 C          63.8465   89.8815   13.1951 C.ar    1  UNL1        0.0144
     10 C          64.5184   91.1246   12.6916 C.ar    1  UNL1        0.0463
     11 N          65.4292   91.9029   13.5942 N.am    1  UNL1       -0.2842
     12 H          65.5859   91.5979   14.5171 H       1  UNL1        0.1548
     13 C          61.7862   88.7896    9.9837 C.ar    1  UNL1        0.0192
     14 C          62.0508   87.3361    9.7237 C.ar    1  UNL1        0.0031
     15 C          61.1400   86.5577    8.8211 C.ar    1  UNL1        0.0207
     16 C          59.9647   87.2329    8.1784 C.ar    1  UNL1        0.0989
     17 N          59.7002   88.6863    8.4384 N.ar    1  UNL1       -0.2423
     18 C          60.6110   89.4646    9.3411 C.ar    1  UNL1        0.0988
@<TRIPOS>BOND
     1     1     2    2
     2     2     3    1
     3     3     4    1
     4     4     5    1
     5     5     6   ar
     6     6     7   ar
     7     7    13    1
     8    13    14   ar
     9    14    15   ar
    10    15    16   ar
    11    16    17   ar
    12    17    18   ar
    13     7     8   ar
    14     8     9   ar
    15     9    10   ar
    16    10    11    1
    17    11     2   am
    18    10     5   ar
    19    18    13   ar
    20    11    12    1
@<TRIPOS>MOLECULE
*****
 18 20 0 0 0
SMALL
GASTEIGER

@<TRIPOS>ATOM
      1 O          58.9888   89.8795    6.5451 O.2     1  UNL1       -0.2748
      2 C          59.5821   88.8675    7.4799 C.2     1  UNL1        0.2264
      3 C          59.2430   87.4145    7.3256 C.3     1  UNL1        0.0901
      4 C          59.8363   86.4025    8.2604 C.3     1  UNL1        0.0372
      5 C          60.7687   86.8435    9.3495 C.ar    1  UNL1       -0.0082
      6 C          61.3620   85.8315   10.2843 C.ar    1  UNL1       -0.0030
      7 C          62.2944   86.2724   11.3733 C.ar    1  UNL1        0.0013
      8 C          62.6336   87.7255   11.5276 C.ar    1  UNL1        0.0013
      9 C          62.0403   88.7375   10.5928 C.ar    1  UNL1        0.0144
     10 C          61.1078   88.2964    9.5037 C.ar    1  UNL1        0.0463
     11 N          60.5145   89.3084    8.5689 N.am    1  UNL1       -0.2842
     12 H          60.7371   90.2621    8.6702 H       1  UNL1        0.1548
     13 C          62.8877   85.2604   12.3081 C.ar    1  UNL1        0.0192
     14 C          62.7532   83.7961   12.0117 C.ar    1  UNL1        0.0031
     15 C          63.3465   82.7841   12.9465 C.ar    1  UNL1        0.0207
     16 C          64.0743   83.2364   14.1777 C.ar    1  UNL1        0.0989
     17 N          64.2088   84.7007   14.4741 N.ar    1  UNL1       -0.2423
     18 C          63.6155   85.7127   13.5393 C.ar    1  UNL1        0.0988
@<TRIPOS>BOND
     1     1     2    2
     2     2     3    1
     3     3     4    1
     4     4     5    1
     5     5     6   ar
     6     6     7   ar
     7     7    13    1
     8    13    14   ar
     9    14    15   ar
    10    15    16   ar
    11    16    17   ar
    12    17    18   ar
    13     7     8   ar
    14     8     9   ar
    15     9    10   ar
    16    10    11    1
    17    11     2   am
    18    10     5   ar
    19    18    13   ar
    20    11    12    1
@<TRIPOS>MOLECULE
*****
 18 20 0 0 0
SMALL
GASTEIGER

@<TRIPOS>ATOM
      1 O          63.1699   80.1365   14.1978 O.2     1  UNL1       -0.2748
      2 C          63.2104   81.5955   13.8520 C.2     1  UNL1        0.2264
      3 C          62.7543   82.0589   12.5003 C.3     1  UNL1        0.0901
      4 C          62.7947   83.5179   12.1545 C.3     1  UNL1        0.0372
      5 C          63.2913   84.5136   13.1604 C.ar    1  UNL1       -0.0082
      6 C          63.3318   85.9726   12.8147 C.ar    1  UNL1       -0.0030
      7 C          63.8284   86.9683   13.8206 C.ar    1  UNL1        0.0013
      8 C          64.2846   86.5050   15.1724 C.ar    1  UNL1        0.0013
      9 C          64.2441   85.0459   15.5182 C.ar    1  UNL1        0.0144
     10 C          63.7475   84.0502   14.5122 C.ar    1  UNL1        0.0463
     11 N          63.7070   82.5912   14.8579 N.am    1  UNL1       -0.2842
     12 H          64.0064   82.2871   15.7451 H       1  UNL1        0.1548
     13 C          63.8689   88.4274   13.4748 C.ar    1  UNL1        0.0192
     14 C          64.5825   89.3920   14.3751 C.ar    1  UNL1        0.0031
     15 C          64.6230   90.8510   14.0293 C.ar    1  UNL1        0.0207
     16 C          63.9499   91.3454   12.7832 C.ar    1  UNL1        0.0989
     17 N          63.2363   90.3808   11.8831 N.ar    1  UNL1       -0.2423
     18 C          63.1958   88.9218   12.2289 C.ar    1  UNL1        0.0988
@<TRIPOS>BOND
     1     1     2    2
     2     2     3    1
     3     3     4    1
     4     4     5    1
     5     5     6   ar
     6     6     7   ar
     7     7    13    1
     8    13    14   ar
     9    14    15   ar
    10    15    16   ar
    11    16    17   ar
    12    17    18   ar
    13     7     8   ar
    14     8     9   ar
    15     9    10   ar
    16    10    11    1
    17    11     2   am
    18    10     5   ar
    19    18    13   ar
    20    11    12    1
@<TRIPOS>MOLECULE
*****
 18 20 0 0 0
SMALL
GASTEIGER

@<TRIPOS>ATOM
      1 O          59.8813   86.0391    8.1092 O.2     1  UNL1       -0.2748
      2 C          60.7098   86.7401    9.1447 C.2     1  UNL1        0.2264
      3 C          61.3182   85.9603   10.2723 C.3     1  UNL1        0.0901
      4 C          62.1467   86.6613   11.3078 C.3     1  UNL1        0.0372
      5 C          62.3667   88.1421   11.2157 C.ar    1  UNL1       -0.0082
      6 C          63.1952   88.8431   12.2512 C.ar    1  UNL1       -0.0030
      7 C          63.4153   90.3240   12.1590 C.ar    1  UNL1        0.0013
      8 C          62.8069   91.1039   11.0313 C.ar    1  UNL1        0.0013
      9 C          61.9784   90.4029    9.9958 C.ar    1  UNL1        0.0144
     10 C          61.7584   88.9220   10.0880 C.ar    1  UNL1        0.0463
     11 N          60.9299   88.2210    9.0525 N.am    1  UNL1       -0.2842
     12 H          60.5306   88.7329    8.3124 H       1  UNL1        0.1548
     13 C          64.2438   91.0250   13.1945 C.ar    1  UNL1        0.0192
     14 C          65.3712   91.9202   12.7729 C.ar    1  UNL1        0.0031
     15 C          66.1996   92.6212   13.8084 C.ar    1  UNL1        0.0207
     16 C          65.9007   92.4270   15.2655 C.ar    1  UNL1        0.0989
     17 N          64.7733   91.5318   15.6870 N.ar    1  UNL1       -0.2423
     18 C          63.9449   90.8308   14.6515 C.ar    1  UNL1        0.0988
@<TRIPOS>BOND
     1     1     2    2
     2     2     3    1
     3     3     4    1
     4     4     5    1
     5     5     6   ar
     6     6     7   ar
     7     7    13    1
     8    13    14   ar
     9    14    15   ar
    10    15    16   ar
    11    16    17   ar
    12    17    18   ar
    13     7     8   ar
    14     8     9   ar
    15     9    10   ar
    16    10    11    1
    17    11     2   am
    18    10     5   ar
    19    18    13   ar
    20    11    12    1
@<TRIPOS>MOLECULE
*****
 18 20 0 0 0
SMALL
GASTEIGER

@<TRIPOS>ATOM
      1 O          64.0409   91.8923   13.1578 O.2     1  UNL1       -0.2748
      2 C          63.7558   90.4334   12.9569 C.2     1  UNL1        0.2264
      3 C          62.9792   89.9793   11.7567 C.3     1  UNL1        0.0901
      4 C          62.6941   88.5204   11.5558 C.3     1  UNL1        0.0372
      5 C          63.1857   87.5156   12.5551 C.ar    1  UNL1       -0.0082
      6 C          62.9006   86.0567   12.3542 C.ar    1  UNL1       -0.0030
      7 C          63.3922   85.0519   13.3536 C.ar    1  UNL1        0.0013
      8 C          64.1689   85.5060   14.5539 C.ar    1  UNL1        0.0013
      9 C          64.4539   86.9649   14.7548 C.ar    1  UNL1        0.0144
     10 C          63.9623   87.9697   13.7554 C.ar    1  UNL1        0.0463
     11 N          64.2474   89.4286   13.9562 N.am    1  UNL1       -0.2842
     12 H          64.7571   89.7266   14.7440 H       1  UNL1        0.1548
     13 C          63.1071   83.5930   13.1527 C.ar    1  UNL1        0.0192
     14 C          62.5186   82.7831   14.2697 C.ar    1  UNL1        0.0031
     15 C          62.2335   81.3242   14.0688 C.ar    1  UNL1        0.0207
     16 C          62.5369   80.6752   12.7509 C.ar    1  UNL1        0.0989
     17 N          63.1254   81.4852   11.6339 N.ar    1  UNL1       -0.2423
     18 C          63.4104   82.9441   11.8348 C.ar    1  UNL1        0.0988
@<TRIPOS>BOND
     1     1     2    2
     2     2     3    1
     3     3     4    1
     4     4     5    1
     5     5     6   ar
     6     6     7   ar
     7     7    13    1
     8    13    14   ar
     9    14    15   ar
    10    15    16   ar
    11    16    17   ar
    12    17    18   ar
    13     7     8   ar
    14     8     9   ar
    15     9    10   ar
    16    10    11    1
    17    11     2   am
    18    10     5   ar
    19    18    13   ar
    20    11    12    1
@<TRIPOS>MOLECULE
*****
 18 20 0 0 0
SMALL
GASTEIGER

@<TRIPOS>ATOM
      1 O          64.5765   80.6882   14.1945 O.2     1  UNL1       -0.2748
      2 C          63.9064   81.8715   13.5613 C.2     1  UNL1        0.2264
      3 C          63.0213   82.7608   14.3832 C.3     1  UNL1        0.0901
      4 C          62.3513   83.9441   13.7500 C.3     1  UNL1        0.0372
      5 C          62.5663   84.2380   12.2949 C.ar    1  UNL1       -0.0082
      6 C          61.8962   85.4213   11.6618 C.ar    1  UNL1       -0.0030
      7 C          62.1113   85.7152   10.2067 C.ar    1  UNL1        0.0013
      8 C          62.9964   84.8258    9.3847 C.ar    1  UNL1        0.0013
      9 C          63.6665   83.6425   10.0178 C.ar    1  UNL1        0.0144
     10 C          63.4514   83.3486   11.4730 C.ar    1  UNL1        0.0463
     11 N          64.1214   82.1654   12.1062 N.am    1  UNL1       -0.2842
     12 H          64.7024   81.5816   11.5667 H       1  UNL1        0.1548
     13 C          61.4412   86.8984    9.5735 C.ar    1  UNL1        0.0192
     14 C          60.4117   86.6928    8.5020 C.ar    1  UNL1        0.0031
     15 C          59.7417   87.8761    7.8688 C.ar    1  UNL1        0.0207
     16 C          60.1011   89.2649    8.3071 C.ar    1  UNL1        0.0989
     17 N          61.1305   89.4705    9.3786 N.ar    1  UNL1       -0.2423
     18 C          61.8006   88.2872   10.0117 C.ar    1  UNL1        0.0988
@<TRIPOS>BOND
     1     1     2    2
     2     2     3    1
     3     3     4    1
     4     4     5    1
     5     5     6   ar
     6     6     7   ar
     7     7    13    1
     8    13    14   ar
     9    14    15   ar
    10    15    16   ar
    11    16    17   ar
    12    17    18   ar
    13     7     8   ar
    14     8     9   ar
    15     9    10   ar
    16    10    11    1
    17    11     2   am
    18    10     5   ar
    19    18    13   ar
    20    11    12    1
@<TRIPOS>MOLECULE
*****
 18 20 0 0 0
SMALL
GASTEIGER

@<TRIPOS>ATOM
      1 O          58.7930   86.3077    7.3945 O.2     1  UNL1       -0.2748
      2 C          59.6444   87.2194    8.2274 C.2     1  UNL1        0.2264
      3 C          59.6469   88.6954    7.9598 C.3     1  UNL1        0.0901
      4 C          60.4984   89.6071    8.7927 C.3     1  UNL1        0.0372
      5 C          61.3474   89.0430    9.8930 C.ar    1  UNL1       -0.0082
      6 C          62.1989   89.9548   10.7259 C.ar    1  UNL1       -0.0030
      7 C          63.0479   89.3907   11.8262 C.ar    1  UNL1        0.0013
      8 C          63.0455   87.9147   12.0938 C.ar    1  UNL1        0.0013
      9 C          62.1940   87.0029   11.2610 C.ar    1  UNL1        0.0144
     10 C          61.3450   87.5671   10.1606 C.ar    1  UNL1        0.0463
     11 N          60.4935   86.6553    9.3277 N.am    1  UNL1       -0.2842
     12 H          60.4919   85.6866    9.5033 H       1  UNL1        0.1548
     13 C          63.8994   90.3024   12.6591 C.ar    1  UNL1        0.0192
     14 C          64.3188   89.8855   14.0376 C.ar    1  UNL1        0.0031
     15 C          65.1703   90.7972   14.8705 C.ar    1  UNL1        0.0207
     16 C          65.6024   92.1260   14.3247 C.ar    1  UNL1        0.0989
     17 N          65.1831   92.5429   12.9462 N.ar    1  UNL1       -0.2423
     18 C          64.3316   91.6311   12.1134 C.ar    1  UNL1        0.0988
@<TRIPOS>BOND
     1     1     2    2
     2     2     3    1
     3     3     4    1
     4     4     5    1
     5     5     6   ar
     6     6     7   ar
     7     7    13    1
     8    13    14   ar
     9    14    15   ar
    10    15    16   ar
    11    16    17   ar
    12    17    18   ar
    13     7     8   ar
    14     8     9   ar
    15     9    10   ar
    16    10    11    1
    17    11     2   am
    18    10     5   ar
    19    18    13   ar
    20    11    12    1
