@<TRIPOS>MOLECULE
*****
 31 34 0 0 0
SMALL
GASTEIGER

@<TRIPOS>ATOM
      1 C          62.1942   87.8927   11.4229 C.ar    1  UNL1        0.0899
      2 C          62.7052   86.5987   11.9836 C.ar    1  UNL1        0.1555
      3 O          63.5435   86.5994   13.2275 O.3     1  UNL1       -0.5039
      4 C          62.3778   85.3040   11.3006 C.ar    1  UNL1        0.1149
      5 N          61.5394   85.3033   10.0567 N.ar    1  UNL1       -0.2423
      6 C          61.0284   86.5973    9.4959 C.ar    1  UNL1        0.0816
      7 C          60.1901   86.5966    8.2521 C.ar    1  UNL1        0.0191
      8 C          59.6792   87.8906    7.6913 C.ar    1  UNL1        0.0015
      9 C          60.0065   89.1853    8.3744 C.ar    1  UNL1        0.0001
     10 C          60.8449   89.1860    9.6182 C.ar    1  UNL1        0.0017
     11 C          61.3558   87.8920   10.1790 C.ar    1  UNL1        0.0250
     12 H          63.7480   87.4082   13.6542 H       1  UNL1        0.2923
     13 C          62.8888   84.0100   11.8614 C.ar    1  UNL1        0.0206
     14 C          63.8437   83.1721   11.0640 C.ar    1  UNL1        0.0016
     15 C          64.3547   81.8781   11.6248 C.ar    1  UNL1        0.0000
     16 C          63.9107   81.4221   12.9831 C.ar    1  UNL1        0.0000
     17 C          62.9558   82.2601   13.7805 C.ar    1  UNL1        0.0000
     18 C          62.4448   83.5540   13.2197 C.ar    1  UNL1        0.0016
     19 N          63.8378   89.3544   12.8056 N.am    1  UNL1       -0.2986
     20 C          62.5216   89.1874   12.1059 C.2     1  UNL1        0.2491
     21 O          61.5326   90.3152   12.0893 O.2     1  UNL1       -0.2700
     22 H          64.4869   88.6142   12.8165 H       1  UNL1        0.1500
     23 C          64.1652   90.6491   13.4886 C.3     1  UNL1        0.0943
     24 C          64.8473   91.7470   12.7276 C.ar    1  UNL1       -0.0045
     25 C          64.5977   91.9076   11.2572 C.ar    1  UNL1       -0.0027
     26 C          65.2798   93.0055   10.4962 C.ar    1  UNL1       -0.0003
     27 C          66.2115   93.9430   11.2055 C.ar    1  UNL1       -0.0000
     28 C          66.4612   93.7825   12.6758 C.ar    1  UNL1       -0.0003
     29 C          65.7790   92.6845   13.4369 C.ar    1  UNL1       -0.0027
     30 C          63.4328   89.6667   15.7797 C.3     1  UNL1        0.0021
     31 C          63.8104   90.8458   14.9328 C.3     1  UNL1        0.0241
@<TRIPOS>BOND
     1    30    31    1
     2    23    31    1
     3    23    19    1
     4    19    20   am
     5    20    21    2
     6    20     1    1
     7     1     2   ar
     8     2     3    1
     9     2     4   ar
    10     4    13    1
    11    13    14   ar
    12    14    15   ar
    13    15    16   ar
    14    16    17   ar
    15    17    18   ar
    16     4     5   ar
    17     5     6   ar
    18     6     7   ar
    19     7     8   ar
    20     8     9   ar
    21     9    10   ar
    22    10    11   ar
    23    23    24    1
    24    24    25   ar
    25    25    26   ar
    26    26    27   ar
    27    27    28   ar
    28    28    29   ar
    29    11     1   ar
    30    29    24   ar
    31    18    13   ar
    32    11     6   ar
    33    19    22    1
    34     3    12    1
@<TRIPOS>MOLECULE
*****
 31 34 0 0 0
SMALL
GASTEIGER

@<TRIPOS>ATOM
      1 C          63.1653   86.9847   12.8105 C.ar    1  UNL1        0.0899
      2 C          63.1991   85.5079   13.0709 C.ar    1  UNL1        0.1555
      3 O          63.8540   84.9801   14.3129 O.3     1  UNL1       -0.5039
      4 C          62.5780   84.5589   12.0892 C.ar    1  UNL1        0.1149
      5 N          61.9231   85.0867   10.8473 N.ar    1  UNL1       -0.2423
      6 C          61.8893   86.5636   10.5868 C.ar    1  UNL1        0.0816
      7 C          61.2345   87.0913    9.3449 C.ar    1  UNL1        0.0191
      8 C          61.2007   88.5681    9.0845 C.ar    1  UNL1        0.0015
      9 C          61.8218   89.5172   10.0661 C.ar    1  UNL1        0.0001
     10 C          62.4766   88.9894   11.3081 C.ar    1  UNL1        0.0017
     11 C          62.5104   87.5126   11.5685 C.ar    1  UNL1        0.0250
     12 H          64.2420   85.5729   14.9261 H       1  UNL1        0.2923
     13 C          62.6118   83.0820   12.3497 C.ar    1  UNL1        0.0206
     14 C          62.1749   82.5449   13.6803 C.ar    1  UNL1        0.0016
     15 C          62.2088   81.0681   13.9406 C.ar    1  UNL1        0.0000
     16 C          62.6794   80.1284   12.8704 C.ar    1  UNL1        0.0000
     17 C          63.1163   80.6655   11.5398 C.ar    1  UNL1        0.0000
     18 C          63.0825   82.1423   11.2794 C.ar    1  UNL1        0.0016
     19 N          63.1863   89.2919   14.0048 N.am    1  UNL1       -0.2986
     20 C          63.7864   87.9338   13.7921 C.2     1  UNL1        0.2491
     21 O          65.0077   87.5246   14.5611 O.2     1  UNL1       -0.2700
     22 H          62.3848   89.5605   13.5001 H       1  UNL1        0.1500
     23 C          63.8074   90.2410   14.9864 C.3     1  UNL1        0.0943
     24 C          64.7672   91.2907   14.5103 C.ar    1  UNL1       -0.0045
     25 C          65.6473   92.0038   15.4937 C.ar    1  UNL1       -0.0027
     26 C          66.6071   93.0535   15.0176 C.ar    1  UNL1       -0.0003
     27 C          66.6870   93.3902   13.5580 C.ar    1  UNL1       -0.0000
     28 C          65.8070   92.6772   12.5746 C.ar    1  UNL1       -0.0003
     29 C          64.8471   91.6274   13.0507 C.ar    1  UNL1       -0.0027
     30 C          63.0751   88.8180   17.0331 C.3     1  UNL1        0.0021
     31 C          63.4686   90.1402   16.4442 C.3     1  UNL1        0.0241
@<TRIPOS>BOND
     1    30    31    1
     2    23    31    1
     3    23    19    1
     4    19    20   am
     5    20    21    2
     6    20     1    1
     7     1     2   ar
     8     2     3    1
     9     2     4   ar
    10     4    13    1
    11    13    14   ar
    12    14    15   ar
    13    15    16   ar
    14    16    17   ar
    15    17    18   ar
    16     4     5   ar
    17     5     6   ar
    18     6     7   ar
    19     7     8   ar
    20     8     9   ar
    21     9    10   ar
    22    10    11   ar
    23    23    24    1
    24    24    25   ar
    25    25    26   ar
    26    26    27   ar
    27    27    28   ar
    28    28    29   ar
    29    11     1   ar
    30    29    24   ar
    31    18    13   ar
    32    11     6   ar
    33    19    22    1
    34     3    12    1
@<TRIPOS>MOLECULE
*****
 31 34 0 0 0
SMALL
GASTEIGER

@<TRIPOS>ATOM
      1 C          63.1105   87.4062   12.5966 C.ar    1  UNL1        0.0899
      2 C          62.6135   87.2061   11.1955 C.ar    1  UNL1        0.1555
      3 O          62.1953   88.3881   10.3721 O.3     1  UNL1       -0.5039
      4 C          62.5349   85.8241   10.6178 C.ar    1  UNL1        0.1149
      5 N          62.9531   84.6421   11.4412 N.ar    1  UNL1       -0.2423
      6 C          63.4501   84.8421   12.8423 C.ar    1  UNL1        0.0816
      7 C          63.8683   83.6602   13.6657 C.ar    1  UNL1        0.0191
      8 C          64.3653   83.8603   15.0667 C.ar    1  UNL1        0.0015
      9 C          64.4439   85.2423   15.6444 C.ar    1  UNL1        0.0001
     10 C          64.0257   86.4243   14.8210 C.ar    1  UNL1        0.0017
     11 C          63.5288   86.2242   13.4200 C.ar    1  UNL1        0.0250
     12 H          62.2444   89.2515   10.7329 H       1  UNL1        0.2923
     13 C          62.0379   85.6240    9.2167 C.ar    1  UNL1        0.0206
     14 C          60.6500   86.0544    8.8446 C.ar    1  UNL1        0.0016
     15 C          60.1531   85.8543    7.4435 C.ar    1  UNL1        0.0000
     16 C          61.0441   85.2239    6.4146 C.ar    1  UNL1        0.0000
     17 C          62.4320   84.7935    6.7867 C.ar    1  UNL1        0.0000
     18 C          62.9289   84.9936    8.1878 C.ar    1  UNL1        0.0016
     19 N          64.4167   89.2207   13.9200 N.am    1  UNL1       -0.2986
     20 C          63.1892   88.7883   13.1742 C.2     1  UNL1        0.2491
     21 O          62.0402   89.7379   13.0061 O.2     1  UNL1       -0.2700
     22 H          65.1707   88.5974   14.0303 H       1  UNL1        0.1500
     23 C          64.4953   90.6027   14.4977 C.3     1  UNL1        0.0943
     24 C          65.1113   91.7146   13.7012 C.ar    1  UNL1       -0.0045
     25 C          66.0263   92.6979   14.3691 C.ar    1  UNL1       -0.0027
     26 C          66.6422   93.8098   13.5726 C.ar    1  UNL1       -0.0003
     27 C          66.3433   93.9383   12.1084 C.ar    1  UNL1       -0.0000
     28 C          65.4284   92.9550   11.4405 C.ar    1  UNL1       -0.0003
     29 C          64.8123   91.8431   12.2370 C.ar    1  UNL1       -0.0027
     30 C          63.2645   89.7827   16.6337 C.3     1  UNL1        0.0021
     31 C          63.9580   90.8729   15.8719 C.3     1  UNL1        0.0241
@<TRIPOS>BOND
     1    30    31    1
     2    23    31    1
     3    23    19    1
     4    19    20   am
     5    20    21    2
     6    20     1    1
     7     1     2   ar
     8     2     3    1
     9     2     4   ar
    10     4    13    1
    11    13    14   ar
    12    14    15   ar
    13    15    16   ar
    14    16    17   ar
    15    17    18   ar
    16     4     5   ar
    17     5     6   ar
    18     6     7   ar
    19     7     8   ar
    20     8     9   ar
    21     9    10   ar
    22    10    11   ar
    23    23    24    1
    24    24    25   ar
    25    25    26   ar
    26    26    27   ar
    27    27    28   ar
    28    28    29   ar
    29    11     1   ar
    30    29    24   ar
    31    18    13   ar
    32    11     6   ar
    33    19    22    1
    34     3    12    1
@<TRIPOS>MOLECULE
*****
 31 34 0 0 0
SMALL
GASTEIGER

@<TRIPOS>ATOM
      1 C          62.0943   88.2339   11.0317 C.ar    1  UNL1        0.0899
      2 C          62.6183   87.0402   11.7735 C.ar    1  UNL1        0.1555
      3 O          63.5395   87.2285   12.9423 O.3     1  UNL1       -0.5039
      4 C          62.2212   85.6582   11.3465 C.ar    1  UNL1        0.1149
      5 N          61.3001   85.4699   10.1778 N.ar    1  UNL1       -0.2423
      6 C          60.7760   86.6636    9.4359 C.ar    1  UNL1        0.0816
      7 C          59.8549   86.4753    8.2672 C.ar    1  UNL1        0.0191
      8 C          59.3308   87.6691    7.5254 C.ar    1  UNL1        0.0015
      9 C          59.7279   89.0511    7.9523 C.ar    1  UNL1        0.0001
     10 C          60.6490   89.2394    9.1211 C.ar    1  UNL1        0.0017
     11 C          61.1731   88.0457    9.8629 C.ar    1  UNL1        0.0250
     12 H          63.7876   88.0918   13.2090 H       1  UNL1        0.2923
     13 C          62.7454   84.4644   12.0884 C.ar    1  UNL1        0.0206
     14 C          63.5871   83.4483   11.3751 C.ar    1  UNL1        0.0016
     15 C          64.1112   82.2546   12.1170 C.ar    1  UNL1        0.0000
     16 C          63.7935   82.0770   13.5722 C.ar    1  UNL1        0.0000
     17 C          62.9517   83.0931   14.2855 C.ar    1  UNL1        0.0000
     18 C          62.4276   84.2868   13.5436 C.ar    1  UNL1        0.0016
     19 N          63.9417   89.9646   11.6163 N.am    1  UNL1       -0.2986
     20 C          62.4913   89.6160   11.4586 C.2     1  UNL1        0.2491
     21 O          61.4380   90.6495   11.7279 O.2     1  UNL1       -0.2700
     22 H          64.6330   89.2863   11.4396 H       1  UNL1        0.1500
     23 C          64.3388   91.3466   12.0433 C.3     1  UNL1        0.0943
     24 C          64.6733   91.6208   13.4795 C.ar    1  UNL1       -0.0045
     25 C          63.8331   91.0281   14.5717 C.ar    1  UNL1       -0.0027
     26 C          64.1677   91.3023   16.0080 C.ar    1  UNL1       -0.0003
     27 C          65.3424   92.1692   16.3521 C.ar    1  UNL1       -0.0000
     28 C          66.1826   92.7619   15.2600 C.ar    1  UNL1       -0.0003
     29 C          65.8481   92.4877   13.8237 C.ar    1  UNL1       -0.0027
     30 C          65.7117   92.8209   10.4027 C.3     1  UNL1        0.0021
     31 C          64.4013   92.4545   11.0339 C.3     1  UNL1        0.0241
@<TRIPOS>BOND
     1    30    31    1
     2    23    31    1
     3    23    19    1
     4    19    20   am
     5    20    21    2
     6    20     1    1
     7     1     2   ar
     8     2     3    1
     9     2     4   ar
    10     4    13    1
    11    13    14   ar
    12    14    15   ar
    13    15    16   ar
    14    16    17   ar
    15    17    18   ar
    16     4     5   ar
    17     5     6   ar
    18     6     7   ar
    19     7     8   ar
    20     8     9   ar
    21     9    10   ar
    22    10    11   ar
    23    23    24    1
    24    24    25   ar
    25    25    26   ar
    26    26    27   ar
    27    27    28   ar
    28    28    29   ar
    29    11     1   ar
    30    29    24   ar
    31    18    13   ar
    32    11     6   ar
    33    19    22    1
    34     3    12    1
@<TRIPOS>MOLECULE
*****
 31 34 0 0 0
SMALL
GASTEIGER

@<TRIPOS>ATOM
      1 C          63.3439   89.0802   12.4750 C.ar    1  UNL1        0.0899
      2 C          62.4627   89.0257   11.2624 C.ar    1  UNL1        0.1555
      3 O          62.1683   90.2788   10.4922 O.3     1  UNL1       -0.5039
      4 C          61.8758   87.7181   10.8199 C.ar    1  UNL1        0.1149
      5 N          62.1702   86.4650   11.5900 N.ar    1  UNL1       -0.2423
      6 C          63.0514   86.5195   12.8027 C.ar    1  UNL1        0.0816
      7 C          63.3458   85.2664   13.5728 C.ar    1  UNL1        0.0191
      8 C          64.2270   85.3209   14.7854 C.ar    1  UNL1        0.0015
      9 C          64.8138   86.6285   15.2279 C.ar    1  UNL1        0.0001
     10 C          64.5194   87.8816   14.4578 C.ar    1  UNL1        0.0017
     11 C          63.6383   87.8271   13.2452 C.ar    1  UNL1        0.0250
     12 H          62.5348   91.0956   10.7686 H       1  UNL1        0.2923
     13 C          60.9946   87.6636    9.6072 C.ar    1  UNL1        0.0206
     14 C          60.6736   86.3432    8.9721 C.ar    1  UNL1        0.0016
     15 C          59.7924   86.2888    7.7595 C.ar    1  UNL1        0.0000
     16 C          59.2322   87.5547    7.1820 C.ar    1  UNL1        0.0000
     17 C          59.5532   88.8751    7.8171 C.ar    1  UNL1        0.0000
     18 C          60.4344   88.9296    9.0297 C.ar    1  UNL1        0.0016
     19 N          65.0612   91.0018   12.1462 N.am    1  UNL1       -0.2986
     20 C          63.9307   90.3878   12.9175 C.2     1  UNL1        0.2491
     21 O          63.3870   91.0814   14.1314 O.2     1  UNL1       -0.2700
     22 H          65.4180   90.5466   11.3495 H       1  UNL1        0.1500
     23 C          65.6480   92.3094   12.5887 C.3     1  UNL1        0.0943
     24 C          66.5623   92.3574   13.7768 C.ar    1  UNL1       -0.0045
     25 C          68.0157   92.0214   13.6188 C.ar    1  UNL1       -0.0027
     26 C          68.9301   92.0693   14.8069 C.ar    1  UNL1       -0.0003
     27 C          68.3911   92.4533   16.1531 C.ar    1  UNL1       -0.0000
     28 C          66.9378   92.7892   16.3111 C.ar    1  UNL1       -0.0003
     29 C          66.0234   92.7413   15.1230 C.ar    1  UNL1       -0.0027
     30 C          66.4128   94.3513   11.1759 C.3     1  UNL1        0.0021
     31 C          65.3205   93.5691   11.8430 C.3     1  UNL1        0.0241
@<TRIPOS>BOND
     1    30    31    1
     2    23    31    1
     3    23    19    1
     4    19    20   am
     5    20    21    2
     6    20     1    1
     7     1     2   ar
     8     2     3    1
     9     2     4   ar
    10     4    13    1
    11    13    14   ar
    12    14    15   ar
    13    15    16   ar
    14    16    17   ar
    15    17    18   ar
    16     4     5   ar
    17     5     6   ar
    18     6     7   ar
    19     7     8   ar
    20     8     9   ar
    21     9    10   ar
    22    10    11   ar
    23    23    24    1
    24    24    25   ar
    25    25    26   ar
    26    26    27   ar
    27    27    28   ar
    28    28    29   ar
    29    11     1   ar
    30    29    24   ar
    31    18    13   ar
    32    11     6   ar
    33    19    22    1
    34     3    12    1
@<TRIPOS>MOLECULE
*****
 31 34 0 0 0
SMALL
GASTEIGER

@<TRIPOS>ATOM
      1 C          63.3731   89.1407   12.5521 C.ar    1  UNL1        0.0899
      2 C          62.4818   89.1215   11.3458 C.ar    1  UNL1        0.1555
      3 O          62.1874   90.3954   10.6105 O.3     1  UNL1       -0.5039
      4 C          61.8849   87.8285   10.8747 C.ar    1  UNL1        0.1149
      5 N          62.1793   86.5547   11.6100 N.ar    1  UNL1       -0.2423
      6 C          63.0706   86.5738   12.8164 C.ar    1  UNL1        0.0816
      7 C          63.3649   85.3000   13.5516 C.ar    1  UNL1        0.0191
      8 C          64.2562   85.3191   14.7579 C.ar    1  UNL1        0.0015
      9 C          64.8531   86.6121   15.2290 C.ar    1  UNL1        0.0001
     10 C          64.5587   87.8859   14.4937 C.ar    1  UNL1        0.0017
     11 C          63.6675   87.8668   13.2874 C.ar    1  UNL1        0.0250
     12 H          62.5603   91.2031   10.9047 H       1  UNL1        0.2923
     13 C          60.9936   87.8094    9.6683 C.ar    1  UNL1        0.0206
     14 C          60.5407   89.0988    9.0500 C.ar    1  UNL1        0.0016
     15 C          59.6494   89.0797    7.8437 C.ar    1  UNL1        0.0000
     16 C          59.2111   87.7712    7.2557 C.ar    1  UNL1        0.0000
     17 C          59.6640   86.4818    7.8740 C.ar    1  UNL1        0.0000
     18 C          60.5553   86.5010    9.0804 C.ar    1  UNL1        0.0016
     19 N          65.1302   91.0361   12.2877 N.am    1  UNL1       -0.2986
     20 C          63.9700   90.4336   13.0232 C.2     1  UNL1        0.2491
     21 O          63.4066   91.1242   14.2298 O.2     1  UNL1       -0.2700
     22 H          65.5000   90.5828   11.4959 H       1  UNL1        0.1500
     23 C          65.7271   92.3290   12.7588 C.3     1  UNL1        0.0943
     24 C          66.1764   93.3551   11.7613 C.ar    1  UNL1       -0.0045
     25 C          66.7445   92.9208   10.4426 C.ar    1  UNL1       -0.0027
     26 C          67.1939   93.9469    9.4451 C.ar    1  UNL1       -0.0003
     27 C          67.0751   95.4073    9.7660 C.ar    1  UNL1       -0.0000
     28 C          66.5071   95.8417   11.0846 C.ar    1  UNL1       -0.0003
     29 C          66.0577   94.8156   12.0822 C.ar    1  UNL1       -0.0027
     30 C          66.9553   91.9098   15.0096 C.3     1  UNL1        0.0021
     31 C          65.8747   92.5959   14.2276 C.3     1  UNL1        0.0241
@<TRIPOS>BOND
     1    30    31    1
     2    23    31    1
     3    23    19    1
     4    19    20   am
     5    20    21    2
     6    20     1    1
     7     1     2   ar
     8     2     3    1
     9     2     4   ar
    10     4    13    1
    11    13    14   ar
    12    14    15   ar
    13    15    16   ar
    14    16    17   ar
    15    17    18   ar
    16     4     5   ar
    17     5     6   ar
    18     6     7   ar
    19     7     8   ar
    20     8     9   ar
    21     9    10   ar
    22    10    11   ar
    23    23    24    1
    24    24    25   ar
    25    25    26   ar
    26    26    27   ar
    27    27    28   ar
    28    28    29   ar
    29    11     1   ar
    30    29    24   ar
    31    18    13   ar
    32    11     6   ar
    33    19    22    1
    34     3    12    1
@<TRIPOS>MOLECULE
*****
 31 34 0 0 0
SMALL
GASTEIGER

@<TRIPOS>ATOM
      1 C          63.1650   87.7915   12.6713 C.ar    1  UNL1        0.0899
      2 C          63.9755   88.6328   13.6122 C.ar    1  UNL1        0.1555
      3 O          64.6353   88.0027   14.8029 O.3     1  UNL1       -0.5039
      4 C          64.1264   90.1041   13.3623 C.ar    1  UNL1        0.1149
      5 N          63.4667   90.7342   12.1716 N.ar    1  UNL1       -0.2423
      6 C          62.6561   89.8929   11.2307 C.ar    1  UNL1        0.0816
      7 C          61.9964   90.5229   10.0400 C.ar    1  UNL1        0.0191
      8 C          61.1858   89.6817    9.0992 C.ar    1  UNL1        0.0015
      9 C          61.0350   88.2103    9.3490 C.ar    1  UNL1        0.0001
     10 C          61.6947   87.5803   10.5397 C.ar    1  UNL1        0.0017
     11 C          62.5052   88.4215   11.4806 C.ar    1  UNL1        0.0250
     12 H          64.5411   87.0836   14.9590 H       1  UNL1        0.2923
     13 C          64.9370   90.9454   14.3032 C.ar    1  UNL1        0.0206
     14 C          66.3314   91.3546   13.9317 C.ar    1  UNL1        0.0016
     15 C          67.1419   92.1958   14.8726 C.ar    1  UNL1        0.0000
     16 C          66.5580   92.6278   16.1850 C.ar    1  UNL1        0.0000
     17 C          65.1636   92.2187   16.5565 C.ar    1  UNL1        0.0000
     18 C          64.3531   91.3774   15.6156 C.ar    1  UNL1        0.0016
     19 N          64.1270   85.5516   13.5697 N.am    1  UNL1       -0.2986
     20 C          63.0141   86.3202   12.9212 C.2     1  UNL1        0.2491
     21 O          61.7503   85.6174   12.5224 O.2     1  UNL1       -0.2700
     22 H          64.9565   86.0128   13.8315 H       1  UNL1        0.1500
     23 C          63.9762   84.0802   13.8196 C.3     1  UNL1        0.0943
     24 C          63.8039   83.1374   12.6658 C.ar    1  UNL1       -0.0045
     25 C          62.9824   81.8931   12.8302 C.ar    1  UNL1       -0.0027
     26 C          62.8102   80.9502   11.6764 C.ar    1  UNL1       -0.0003
     27 C          63.4594   81.2515   10.3582 C.ar    1  UNL1       -0.0000
     28 C          64.2808   82.4957   10.1938 C.ar    1  UNL1       -0.0003
     29 C          64.4531   83.4387   11.3476 C.ar    1  UNL1       -0.0027
     30 C          62.9837   84.0298   16.2202 C.3     1  UNL1        0.0021
     31 C          63.9976   83.5518   15.2233 C.3     1  UNL1        0.0241
@<TRIPOS>BOND
     1    30    31    1
     2    23    31    1
     3    23    19    1
     4    19    20   am
     5    20    21    2
     6    20     1    1
     7     1     2   ar
     8     2     3    1
     9     2     4   ar
    10     4    13    1
    11    13    14   ar
    12    14    15   ar
    13    15    16   ar
    14    16    17   ar
    15    17    18   ar
    16     4     5   ar
    17     5     6   ar
    18     6     7   ar
    19     7     8   ar
    20     8     9   ar
    21     9    10   ar
    22    10    11   ar
    23    23    24    1
    24    24    25   ar
    25    25    26   ar
    26    26    27   ar
    27    27    28   ar
    28    28    29   ar
    29    11     1   ar
    30    29    24   ar
    31    18    13   ar
    32    11     6   ar
    33    19    22    1
    34     3    12    1
@<TRIPOS>MOLECULE
*****
 31 34 0 0 0
SMALL
GASTEIGER

@<TRIPOS>ATOM
      1 C          63.1409   86.9590   12.6828 C.ar    1  UNL1        0.0899
      2 C          62.3261   87.5193   11.5549 C.ar    1  UNL1        0.1555
      3 O          62.1819   89.0042   11.3993 O.3     1  UNL1       -0.5039
      4 C          61.6555   86.5947   10.5827 C.ar    1  UNL1        0.1149
      5 N          61.7996   85.1098   10.7382 N.ar    1  UNL1       -0.2423
      6 C          62.6145   84.5494   11.8661 C.ar    1  UNL1        0.0816
      7 C          62.7586   83.0645   12.0217 C.ar    1  UNL1        0.0191
      8 C          63.5735   82.5042   13.1496 C.ar    1  UNL1        0.0015
      9 C          64.2441   83.4288   14.1218 C.ar    1  UNL1        0.0001
     10 C          64.0999   84.9137   13.9663 C.ar    1  UNL1        0.0017
     11 C          63.2851   85.4740   12.8384 C.ar    1  UNL1        0.0250
     12 H          62.6008   89.5818   12.0067 H       1  UNL1        0.2923
     13 C          60.8406   87.1550    9.4548 C.ar    1  UNL1        0.0206
     14 C          60.7698   88.6387    9.2456 C.ar    1  UNL1        0.0016
     15 C          59.9550   89.1990    8.1177 C.ar    1  UNL1        0.0000
     16 C          59.2110   88.2756    7.1991 C.ar    1  UNL1        0.0000
     17 C          59.2818   86.7920    7.4083 C.ar    1  UNL1        0.0000
     18 C          60.0966   86.2317    8.5361 C.ar    1  UNL1        0.0016
     19 N          63.3803   89.3173   13.7462 N.am    1  UNL1       -0.2986
     20 C          63.8116   87.8836   13.6551 C.2     1  UNL1        0.2491
     21 O          64.9135   87.3744   14.5363 O.2     1  UNL1       -0.2700
     22 H          62.6571   89.6515   13.1678 H       1  UNL1        0.1500
     23 C          64.0510   90.2419   14.7185 C.3     1  UNL1        0.0943
     24 C          65.1172   91.1843   14.2440 C.ar    1  UNL1       -0.0045
     25 C          66.3811   91.3465   15.0354 C.ar    1  UNL1       -0.0027
     26 C          67.4473   92.2889   14.5609 C.ar    1  UNL1       -0.0003
     27 C          67.2497   93.0690   13.2950 C.ar    1  UNL1       -0.0000
     28 C          65.9858   92.9067   12.5037 C.ar    1  UNL1       -0.0003
     29 C          64.9196   91.9644   12.9781 C.ar    1  UNL1       -0.0027
     30 C          63.0046   89.0057   16.7500 C.3     1  UNL1        0.0021
     31 C          63.6554   90.2242   16.1653 C.3     1  UNL1        0.0241
@<TRIPOS>BOND
     1    30    31    1
     2    23    31    1
     3    23    19    1
     4    19    20   am
     5    20    21    2
     6    20     1    1
     7     1     2   ar
     8     2     3    1
     9     2     4   ar
    10     4    13    1
    11    13    14   ar
    12    14    15   ar
    13    15    16   ar
    14    16    17   ar
    15    17    18   ar
    16     4     5   ar
    17     5     6   ar
    18     6     7   ar
    19     7     8   ar
    20     8     9   ar
    21     9    10   ar
    22    10    11   ar
    23    23    24    1
    24    24    25   ar
    25    25    26   ar
    26    26    27   ar
    27    27    28   ar
    28    28    29   ar
    29    11     1   ar
    30    29    24   ar
    31    18    13   ar
    32    11     6   ar
    33    19    22    1
    34     3    12    1
@<TRIPOS>MOLECULE
*****
 31 34 0 0 0
SMALL
GASTEIGER

@<TRIPOS>ATOM
      1 C          63.1297   87.7642   12.3413 C.ar    1  UNL1        0.0899
      2 C          63.6063   89.0360   12.9779 C.ar    1  UNL1        0.1555
      3 O          63.3842   90.3493   12.2878 O.3     1  UNL1       -0.5039
      4 C          64.3052   88.9947   14.3045 C.ar    1  UNL1        0.1149
      5 N          64.5273   87.6815   14.9946 N.ar    1  UNL1       -0.2423
      6 C          64.0507   86.4096   14.3580 C.ar    1  UNL1        0.0816
      7 C          64.2729   85.0965   15.0481 C.ar    1  UNL1        0.0191
      8 C          63.7962   83.8247   14.4115 C.ar    1  UNL1        0.0015
      9 C          63.0974   83.8660   13.0849 C.ar    1  UNL1        0.0001
     10 C          62.8752   85.1792   12.3948 C.ar    1  UNL1        0.0017
     11 C          63.3519   86.4510   13.0314 C.ar    1  UNL1        0.0250
     12 H          62.9476   90.3751   11.4591 H       1  UNL1        0.2923
     13 C          64.7818   90.2666   14.9411 C.ar    1  UNL1        0.0206
     14 C          66.0627   90.8996   14.4846 C.ar    1  UNL1        0.0016
     15 C          66.5393   92.1714   15.1211 C.ar    1  UNL1        0.0000
     16 C          65.7350   92.8102   16.2142 C.ar    1  UNL1        0.0000
     17 C          64.4540   92.1773   16.6708 C.ar    1  UNL1        0.0000
     18 C          63.9774   90.9054   16.0342 C.ar    1  UNL1        0.0016
     19 N          61.4164   86.7564   10.6684 N.am    1  UNL1       -0.2986
     20 C          62.4309   87.8055   11.0147 C.2     1  UNL1        0.2491
     21 O          62.7466   88.8961   10.0343 O.2     1  UNL1       -0.2700
     22 H          61.2091   86.0406   11.3118 H       1  UNL1        0.1500
     23 C          60.7176   86.7977    9.3418 C.3     1  UNL1        0.0943
     24 C          61.1904   85.9246    8.2175 C.ar    1  UNL1       -0.0045
     25 C          60.2247   85.4709    7.1631 C.ar    1  UNL1       -0.0027
     26 C          60.6976   84.5978    6.0388 C.ar    1  UNL1       -0.0003
     27 C          62.1361   84.1784    5.9688 C.ar    1  UNL1       -0.0000
     28 C          63.1017   84.6321    7.0231 C.ar    1  UNL1       -0.0003
     29 C          62.6289   85.5053    8.1475 C.ar    1  UNL1       -0.0027
     30 C          59.6774   88.9148    8.2526 C.3     1  UNL1        0.0021
     31 C          59.5458   87.7122    9.1395 C.3     1  UNL1        0.0241
@<TRIPOS>BOND
     1    30    31    1
     2    23    31    1
     3    23    19    1
     4    19    20   am
     5    20    21    2
     6    20     1    1
     7     1     2   ar
     8     2     3    1
     9     2     4   ar
    10     4    13    1
    11    13    14   ar
    12    14    15   ar
    13    15    16   ar
    14    16    17   ar
    15    17    18   ar
    16     4     5   ar
    17     5     6   ar
    18     6     7   ar
    19     7     8   ar
    20     8     9   ar
    21     9    10   ar
    22    10    11   ar
    23    23    24    1
    24    24    25   ar
    25    25    26   ar
    26    26    27   ar
    27    27    28   ar
    28    28    29   ar
    29    11     1   ar
    30    29    24   ar
    31    18    13   ar
    32    11     6   ar
    33    19    22    1
    34     3    12    1
