@<TRIPOS>MOLECULE
*****
 29 32 0 0 0
SMALL
GASTEIGER

@<TRIPOS>ATOM
      1 C          63.7098   86.6803   14.8025 C.2     1  UNL1        0.3767
      2 N          63.4200   86.1930   13.4138 N.2     1  UNL1       -0.0307
      3 C          63.4661   84.6938   13.4295 C.2     1  UNL1        0.2334
      4 C          63.2594   83.6719   12.3511 C.2     1  UNL1        0.0684
      5 C          63.3710   82.2108   12.6712 C.2     1  UNL1        0.1142
      6 C          63.6893   81.7715   14.0697 C.2     1  UNL1        0.0015
      7 C          63.8960   82.7934   15.1481 C.3     1  UNL1        0.1051
      8 C          63.7844   84.2545   14.8280 C.2     1  UNL1        0.2179
      9 N          63.9350   85.4823   15.6765 N.2     1  UNL1       -0.0347
     10 O          63.9295   92.4148   16.5539 O.2     1  UNL1       -0.2666
     11 C          63.8746   90.9812   16.1160 C.ar    1  UNL1        0.2648
     12 C          63.2487   89.9487   17.0060 C.ar    1  UNL1        0.0614
     13 C          63.1938   88.5150   16.5682 C.ar    1  UNL1        0.0141
     14 C          63.7647   88.1140   15.2404 C.ar    1  UNL1        0.1061
     15 C          64.3906   89.1465   14.3504 C.ar    1  UNL1        0.0906
     16 N          64.4455   90.5801   14.7882 N.ar    1  UNL1       -0.2729
     17 C          65.0714   91.6127   13.8982 C.ar    1  UNL1        0.0669
     18 C          64.6289   91.7398   12.4706 C.ar    1  UNL1        0.0176
     19 C          65.2548   92.7723   11.5805 C.ar    1  UNL1        0.0015
     20 C          66.3232   93.6778   12.1180 C.ar    1  UNL1        0.0001
     21 C          66.7656   93.5506   13.5456 C.ar    1  UNL1        0.0015
     22 C          66.1397   92.5180   14.4357 C.ar    1  UNL1        0.0176
     23 S          63.1643   81.1888   11.5928 S.O2    1  UNL1        0.0918
     24 O          62.5789   80.2442   12.6002 O.2     1  UNL1       -0.1612
     25 O          63.7497   82.1334   10.5853 O.2     1  UNL1       -0.1612
     26 C          62.9576   80.1669   10.5144 C.3     1  UNL1        0.5261
     27 F          62.5937   79.1461   11.5516 F       1  UNL1       -0.1500
     28 F          63.3214   81.1876    9.4773 F       1  UNL1       -0.1500
     29 F          62.7509   79.1448    9.4361 F       1  UNL1       -0.1500
@<TRIPOS>BOND
     1    10    11    2
     2    11    12   ar
     3    12    13   ar
     4    13    14   ar
     5    14     1    1
     6     1     2    2
     7     2     3    1
     8     3     4    2
     9     4     5    1
    10     5    23    1
    11    23    24    2
    12    23    25    2
    13    23    26    1
    14    26    27    1
    15    26    28    1
    16    26    29    1
    17     5     6    2
    18     6     7    1
    19     7     8    1
    20     8     9    2
    21    14    15   ar
    22    15    16   ar
    23    16    17    1
    24    17    18   ar
    25    18    19   ar
    26    19    20   ar
    27    20    21   ar
    28    21    22   ar
    29    16    11   ar
    30    22    17   ar
    31     9     1    1
    32     8     3    1
@<TRIPOS>MOLECULE
*****
 29 32 0 0 0
SMALL
GASTEIGER

@<TRIPOS>ATOM
      1 C          64.5805   90.0883   14.5421 C.2     1  UNL1        0.3767
      2 N          64.4439   90.4948   13.1047 N.2     1  UNL1       -0.0307
      3 C          65.1430   91.8099   12.9265 C.2     1  UNL1        0.2334
      4 C          65.3352   92.6900   11.7271 C.2     1  UNL1        0.0684
      5 C          66.0961   93.9763   11.8550 C.2     1  UNL1        0.1142
      6 C          66.6648   94.3826   13.1822 C.2     1  UNL1        0.0015
      7 C          66.4725   93.5025   14.3816 C.3     1  UNL1        0.1051
      8 C          65.7117   92.2162   14.2537 C.2     1  UNL1        0.2179
      9 N          65.3640   91.1522   15.2522 N.2     1  UNL1       -0.0347
     10 O          62.3794   85.0852   17.0167 O.2     1  UNL1       -0.2666
     11 C          62.9297   86.3359   16.3980 C.ar    1  UNL1        0.2648
     12 C          62.8755   87.6318   17.1514 C.ar    1  UNL1        0.0614
     13 C          63.4258   88.8826   16.5328 C.ar    1  UNL1        0.0141
     14 C          64.0302   88.8375   15.1607 C.ar    1  UNL1        0.1061
     15 C          64.0844   87.5416   14.4073 C.ar    1  UNL1        0.0906
     16 N          63.5341   86.2908   15.0260 N.ar    1  UNL1       -0.2729
     17 C          63.5883   84.9949   14.2725 C.ar    1  UNL1        0.0669
     18 C          64.2178   83.7874   14.9015 C.ar    1  UNL1        0.0176
     19 C          64.2720   82.4915   14.1481 C.ar    1  UNL1        0.0015
     20 C          63.6966   82.4030   12.7656 C.ar    1  UNL1        0.0001
     21 C          63.0671   83.6105   12.1366 C.ar    1  UNL1        0.0015
     22 C          63.0129   84.9065   12.8901 C.ar    1  UNL1        0.0176
     23 S          66.2883   94.8564   10.6555 S.O2    1  UNL1        0.0918
     24 O          66.4937   93.6430    9.7981 O.2     1  UNL1       -0.1612
     25 O          66.0830   96.0699   11.5130 O.2     1  UNL1       -0.1612
     26 C          66.4806   95.7365    9.4562 C.3     1  UNL1        0.5261
     27 F          67.8741   95.2067    9.2908 F       1  UNL1       -0.1500
     28 F          65.0871   96.2663    9.6215 F       1  UNL1       -0.1500
     29 F          66.6729   96.6165    8.2567 F       1  UNL1       -0.1500
@<TRIPOS>BOND
     1    10    11    2
     2    11    12   ar
     3    12    13   ar
     4    13    14   ar
     5    14     1    1
     6     1     2    2
     7     2     3    1
     8     3     4    2
     9     4     5    1
    10     5    23    1
    11    23    24    2
    12    23    25    2
    13    23    26    1
    14    26    27    1
    15    26    28    1
    16    26    29    1
    17     5     6    2
    18     6     7    1
    19     7     8    1
    20     8     9    2
    21    14    15   ar
    22    15    16   ar
    23    16    17    1
    24    17    18   ar
    25    18    19   ar
    26    19    20   ar
    27    20    21   ar
    28    21    22   ar
    29    16    11   ar
    30    22    17   ar
    31     9     1    1
    32     8     3    1
@<TRIPOS>MOLECULE
*****
 29 32 0 0 0
SMALL
GASTEIGER

@<TRIPOS>ATOM
      1 C          64.1603   88.7164   13.4779 C.2     1  UNL1        0.3767
      2 N          64.3990   87.4803   14.2934 N.2     1  UNL1       -0.0307
      3 C          63.6772   86.3430   13.6335 C.2     1  UNL1        0.2334
      4 C          63.5550   84.8907   13.9885 C.2     1  UNL1        0.0684
      5 C          62.7480   83.9717   13.1201 C.2     1  UNL1        0.1142
      6 C          62.0632   84.5049   11.8968 C.2     1  UNL1        0.0015
      7 C          62.1853   85.9571   11.5417 C.3     1  UNL1        0.1051
      8 C          62.9923   86.8762   12.4101 C.2     1  UNL1        0.2179
      9 N          63.2909   88.3430   12.3140 N.2     1  UNL1       -0.0347
     10 O          66.3060   94.1927   14.6634 O.2     1  UNL1       -0.2666
     11 C          65.7696   92.8236   14.3671 C.ar    1  UNL1        0.2648
     12 C          65.2323   91.9718   15.4786 C.ar    1  UNL1        0.0614
     13 C          64.6958   90.6027   15.1822 C.ar    1  UNL1        0.0141
     14 C          64.6967   90.0855   13.7743 C.ar    1  UNL1        0.1061
     15 C          65.2340   90.9373   12.6627 C.ar    1  UNL1        0.0906
     16 N          65.7705   92.3064   12.9591 N.ar    1  UNL1       -0.2729
     17 C          66.3078   93.1582   11.8474 C.ar    1  UNL1        0.0669
     18 C          66.0304   94.6322   11.8308 C.ar    1  UNL1        0.0176
     19 C          66.5677   95.4840   10.7192 C.ar    1  UNL1        0.0015
     20 C          67.3825   94.8619    9.6242 C.ar    1  UNL1        0.0001
     21 C          67.6600   93.3878    9.6408 C.ar    1  UNL1        0.0015
     22 C          67.1226   92.5360   10.7525 C.ar    1  UNL1        0.0176
     23 S          62.6259   82.5194   13.4751 S.O2    1  UNL1        0.0918
     24 O          62.8318   82.8559   14.9223 O.2     1  UNL1       -0.1612
     25 O          62.4200   82.1829   12.0280 O.2     1  UNL1       -0.1612
     26 C          62.5037   81.0672   13.8301 C.3     1  UNL1        0.5261
     27 F          63.9348   80.8506   13.4365 F       1  UNL1       -0.1500
     28 F          61.0726   81.2838   14.2238 F       1  UNL1       -0.1500
     29 F          62.3816   79.6149   14.1852 F       1  UNL1       -0.1500
@<TRIPOS>BOND
     1    10    11    2
     2    11    12   ar
     3    12    13   ar
     4    13    14   ar
     5    14     1    1
     6     1     2    2
     7     2     3    1
     8     3     4    2
     9     4     5    1
    10     5    23    1
    11    23    24    2
    12    23    25    2
    13    23    26    1
    14    26    27    1
    15    26    28    1
    16    26    29    1
    17     5     6    2
    18     6     7    1
    19     7     8    1
    20     8     9    2
    21    14    15   ar
    22    15    16   ar
    23    16    17    1
    24    17    18   ar
    25    18    19   ar
    26    19    20   ar
    27    20    21   ar
    28    21    22   ar
    29    16    11   ar
    30    22    17   ar
    31     9     1    1
    32     8     3    1
@<TRIPOS>MOLECULE
*****
 29 32 0 0 0
SMALL
GASTEIGER

@<TRIPOS>ATOM
      1 C          62.6659   89.9558   12.5521 C.2     1  UNL1        0.3767
      2 N          63.9815   90.5524   12.1480 N.2     1  UNL1       -0.0307
      3 C          64.6522   91.0758   13.3835 C.2     1  UNL1        0.2334
      4 C          65.9670   91.7657   13.5960 C.2     1  UNL1        0.0684
      5 C          66.3807   92.1826   14.9762 C.2     1  UNL1        0.1142
      6 C          65.4796   91.9095   16.1439 C.2     1  UNL1        0.0015
      7 C          64.1648   91.2195   15.9313 C.3     1  UNL1        0.1051
      8 C          63.7511   90.8026   14.5511 C.2     1  UNL1        0.2179
      9 N          62.5235   90.1105   14.0373 N.2     1  UNL1       -0.0347
     10 O          58.6741   87.3995    8.8737 O.2     1  UNL1       -0.2666
     11 C          59.6720   88.0386    9.7933 C.ar    1  UNL1        0.2648
     12 C          59.2317   89.1012   10.7560 C.ar    1  UNL1        0.0614
     13 C          60.2297   89.7403   11.6756 C.ar    1  UNL1        0.0141
     14 C          61.6680   89.3167   11.6325 C.ar    1  UNL1        0.1061
     15 C          62.1083   88.2541   10.6698 C.ar    1  UNL1        0.0906
     16 N          61.1103   87.6150    9.7502 N.ar    1  UNL1       -0.2729
     17 C          61.5507   86.5523    8.7875 C.ar    1  UNL1        0.0669
     18 C          62.8849   85.8892    8.9612 C.ar    1  UNL1        0.0176
     19 C          63.3253   84.8265    7.9985 C.ar    1  UNL1        0.0015
     20 C          62.4315   84.4269    6.8621 C.ar    1  UNL1        0.0001
     21 C          61.0973   85.0901    6.6883 C.ar    1  UNL1        0.0015
     22 C          60.6569   86.1528    7.6511 C.ar    1  UNL1        0.0176
     23 S          67.6955   92.8726   15.1888 S.O2    1  UNL1        0.0918
     24 O          68.1856   92.3439   13.8735 O.2     1  UNL1       -0.1612
     25 O          67.2054   93.4014   16.5041 O.2     1  UNL1       -0.1612
     26 C          69.0103   93.5626   15.4014 C.3     1  UNL1        0.5261
     27 F          68.3317   94.5929   16.2545 F       1  UNL1       -0.1500
     28 F          69.6889   92.5323   14.5482 F       1  UNL1       -0.1500
     29 F          70.3251   94.2527   15.6139 F       1  UNL1       -0.1500
@<TRIPOS>BOND
     1    10    11    2
     2    11    12   ar
     3    12    13   ar
     4    13    14   ar
     5    14     1    1
     6     1     2    2
     7     2     3    1
     8     3     4    2
     9     4     5    1
    10     5    23    1
    11    23    24    2
    12    23    25    2
    13    23    26    1
    14    26    27    1
    15    26    28    1
    16    26    29    1
    17     5     6    2
    18     6     7    1
    19     7     8    1
    20     8     9    2
    21    14    15   ar
    22    15    16   ar
    23    16    17    1
    24    17    18   ar
    25    18    19   ar
    26    19    20   ar
    27    20    21   ar
    28    21    22   ar
    29    16    11   ar
    30    22    17   ar
    31     9     1    1
    32     8     3    1
@<TRIPOS>MOLECULE
*****
 29 32 0 0 0
SMALL
GASTEIGER

@<TRIPOS>ATOM
      1 C          62.2555   88.9579   10.9027 C.2     1  UNL1        0.3767
      2 N          62.9734   90.2747   10.9265 N.2     1  UNL1       -0.0307
      3 C          63.7580   90.3519   12.2027 C.2     1  UNL1        0.2334
      4 C          64.6545   91.4138   12.7670 C.2     1  UNL1        0.0684
      5 C          65.3179   91.2066   14.0963 C.2     1  UNL1        0.1142
      6 C          65.0849   89.9375   14.8611 C.2     1  UNL1        0.0015
      7 C          64.1884   88.8756   14.2967 C.3     1  UNL1        0.1051
      8 C          63.5249   89.0828   12.9675 C.2     1  UNL1        0.2179
      9 N          62.5963   88.2213   12.1641 N.2     1  UNL1       -0.0347
     10 O          58.6528   86.9840    6.5295 O.2     1  UNL1       -0.2666
     11 C          59.5535   87.4775    7.6228 C.ar    1  UNL1        0.2648
     12 C          60.0256   86.5338    8.6888 C.ar    1  UNL1        0.0614
     13 C          60.9263   87.0273    9.7821 C.ar    1  UNL1        0.0141
     14 C          61.3548   88.4645    9.8094 C.ar    1  UNL1        0.1061
     15 C          60.8827   89.4082    8.7434 C.ar    1  UNL1        0.0906
     16 N          59.9820   88.9147    7.6501 N.ar    1  UNL1       -0.2729
     17 C          59.5099   89.8585    6.5840 C.ar    1  UNL1        0.0669
     18 C          58.0414   90.0910    6.3849 C.ar    1  UNL1        0.0176
     19 C          57.5692   91.0347    5.3189 C.ar    1  UNL1        0.0015
     20 C          58.5655   91.7460    4.4520 C.ar    1  UNL1        0.0001
     21 C          60.0340   91.5136    4.6511 C.ar    1  UNL1        0.0015
     22 C          60.5061   90.5698    5.7171 C.ar    1  UNL1        0.0176
     23 S          66.2145   92.2686   14.6607 S.O2    1  UNL1        0.0918
     24 O          67.1492   92.0961   13.5004 O.2     1  UNL1       -0.1612
     25 O          65.2797   92.4411   15.8210 O.2     1  UNL1       -0.1612
     26 C          67.1110   93.3305   15.2251 C.3     1  UNL1        0.5261
     27 F          67.5824   92.3725   16.2786 F       1  UNL1       -0.1500
     28 F          66.6396   94.2884   14.1715 F       1  UNL1       -0.1500
     29 F          68.0076   94.3924   15.7895 F       1  UNL1       -0.1500
@<TRIPOS>BOND
     1    10    11    2
     2    11    12   ar
     3    12    13   ar
     4    13    14   ar
     5    14     1    1
     6     1     2    2
     7     2     3    1
     8     3     4    2
     9     4     5    1
    10     5    23    1
    11    23    24    2
    12    23    25    2
    13    23    26    1
    14    26    27    1
    15    26    28    1
    16    26    29    1
    17     5     6    2
    18     6     7    1
    19     7     8    1
    20     8     9    2
    21    14    15   ar
    22    15    16   ar
    23    16    17    1
    24    17    18   ar
    25    18    19   ar
    26    19    20   ar
    27    20    21   ar
    28    21    22   ar
    29    16    11   ar
    30    22    17   ar
    31     9     1    1
    32     8     3    1
@<TRIPOS>MOLECULE
*****
 29 32 0 0 0
SMALL
GASTEIGER

@<TRIPOS>ATOM
      1 C          64.0251   89.5577   13.7657 C.2     1  UNL1        0.3767
      2 N          65.1115   90.5842   13.8927 N.2     1  UNL1       -0.0307
      3 C          65.0670   91.4593   12.6753 C.2     1  UNL1        0.2334
      4 C          65.8968   92.6356   12.2539 C.2     1  UNL1        0.0684
      5 C          65.6127   93.3263   10.9530 C.2     1  UNL1        0.1142
      6 C          64.4989   92.8407   10.0736 C.2     1  UNL1        0.0015
      7 C          63.6690   91.6644   10.4950 C.3     1  UNL1        0.1051
      8 C          63.9531   90.9737   11.7958 C.2     1  UNL1        0.2179
      9 N          63.3092   89.7984   12.4698 N.2     1  UNL1       -0.0347
     10 O          62.7646   85.2459   17.7431 O.2     1  UNL1       -0.2666
     11 C          63.0798   86.3238   16.7488 C.ar    1  UNL1        0.2648
     12 C          63.1063   87.7596   17.1822 C.ar    1  UNL1        0.0614
     13 C          63.4214   88.8375   16.1879 C.ar    1  UNL1        0.0141
     14 C          63.7100   88.4797   14.7601 C.ar    1  UNL1        0.1061
     15 C          63.6835   87.0440   14.3266 C.ar    1  UNL1        0.0906
     16 N          63.3684   85.9661   15.3210 N.ar    1  UNL1       -0.2729
     17 C          63.3419   84.5303   14.8875 C.ar    1  UNL1        0.0669
     18 C          64.5754   83.8966   14.3157 C.ar    1  UNL1        0.0176
     19 C          64.5489   82.4609   13.8822 C.ar    1  UNL1        0.0015
     20 C          63.2889   81.6587   14.0205 C.ar    1  UNL1        0.0001
     21 C          62.0554   82.2924   14.5922 C.ar    1  UNL1        0.0015
     22 C          62.0819   83.7282   15.0257 C.ar    1  UNL1        0.0176
     23 S          66.4426   94.5027   10.5316 S.O2    1  UNL1        0.0918
     24 O          65.2221   95.3742   10.5612 O.2     1  UNL1       -0.1612
     25 O          67.6631   93.6312   10.5019 O.2     1  UNL1       -0.1612
     26 C          67.2724   95.6790   10.1101 C.3     1  UNL1        0.5261
     27 F          68.2006   94.7601    9.3727 F       1  UNL1       -0.1500
     28 F          66.3441   96.5980   10.8476 F       1  UNL1       -0.1500
     29 F          68.1022   96.8554    9.6887 F       1  UNL1       -0.1500
@<TRIPOS>BOND
     1    10    11    2
     2    11    12   ar
     3    12    13   ar
     4    13    14   ar
     5    14     1    1
     6     1     2    2
     7     2     3    1
     8     3     4    2
     9     4     5    1
    10     5    23    1
    11    23    24    2
    12    23    25    2
    13    23    26    1
    14    26    27    1
    15    26    28    1
    16    26    29    1
    17     5     6    2
    18     6     7    1
    19     7     8    1
    20     8     9    2
    21    14    15   ar
    22    15    16   ar
    23    16    17    1
    24    17    18   ar
    25    18    19   ar
    26    19    20   ar
    27    20    21   ar
    28    21    22   ar
    29    16    11   ar
    30    22    17   ar
    31     9     1    1
    32     8     3    1
@<TRIPOS>MOLECULE
*****
 29 32 0 0 0
SMALL
GASTEIGER

@<TRIPOS>ATOM
      1 C          63.5147   87.2359   14.1170 C.2     1  UNL1        0.3767
      2 N          63.5052   85.9166   14.8306 N.2     1  UNL1       -0.0307
      3 C          63.2568   84.8416   13.8144 C.2     1  UNL1        0.2334
      4 C          63.1431   83.3510   13.9375 C.2     1  UNL1        0.0684
      5 C          62.8854   82.5154   12.7188 C.2     1  UNL1        0.1142
      6 C          62.7412   83.1703   11.3771 C.2     1  UNL1        0.0015
      7 C          62.8549   84.6609   11.2540 C.3     1  UNL1        0.1051
      8 C          63.1126   85.4965   12.4727 C.2     1  UNL1        0.2179
      9 N          63.2720   86.9763   12.6597 N.2     1  UNL1       -0.0347
     10 O          64.3724   92.6082   16.6473 O.2     1  UNL1       -0.2666
     11 C          64.1580   91.2651   16.0147 C.ar    1  UNL1        0.2648
     12 C          63.5107   90.1619   16.7981 C.ar    1  UNL1        0.0614
     13 C          63.2963   88.8188   16.1656 C.ar    1  UNL1        0.0141
     14 C          63.7291   88.5790   14.7496 C.ar    1  UNL1        0.1061
     15 C          64.3764   89.6822   13.9661 C.ar    1  UNL1        0.0906
     16 N          64.5908   91.0253   14.5987 N.ar    1  UNL1       -0.2729
     17 C          65.2381   92.1286   13.8152 C.ar    1  UNL1        0.0669
     18 C          64.9783   92.2555   12.3434 C.ar    1  UNL1        0.0176
     19 C          65.6255   93.3587   11.5598 C.ar    1  UNL1        0.0015
     20 C          66.5327   94.3351   12.2482 C.ar    1  UNL1        0.0001
     21 C          66.7926   94.2082   13.7201 C.ar    1  UNL1        0.0015
     22 C          66.1453   93.1049   14.5036 C.ar    1  UNL1        0.0176
     23 S          62.7717   81.0247   12.8418 S.O2    1  UNL1        0.0918
     24 O          62.7728   81.1480   14.3367 O.2     1  UNL1       -0.1612
     25 O          62.7707   80.9013   11.3469 O.2     1  UNL1       -0.1612
     26 C          62.6581   79.5341   12.9649 C.3     1  UNL1        0.5261
     27 F          62.6775   79.4092   11.4703 F       1  UNL1       -0.1500
     28 F          62.6386   79.6590   14.4595 F       1  UNL1       -0.1500
     29 F          62.5444   78.0434   13.0879 F       1  UNL1       -0.1500
@<TRIPOS>BOND
     1    10    11    2
     2    11    12   ar
     3    12    13   ar
     4    13    14   ar
     5    14     1    1
     6     1     2    2
     7     2     3    1
     8     3     4    2
     9     4     5    1
    10     5    23    1
    11    23    24    2
    12    23    25    2
    13    23    26    1
    14    26    27    1
    15    26    28    1
    16    26    29    1
    17     5     6    2
    18     6     7    1
    19     7     8    1
    20     8     9    2
    21    14    15   ar
    22    15    16   ar
    23    16    17    1
    24    17    18   ar
    25    18    19   ar
    26    19    20   ar
    27    20    21   ar
    28    21    22   ar
    29    16    11   ar
    30    22    17   ar
    31     9     1    1
    32     8     3    1
@<TRIPOS>MOLECULE
*****
 29 32 0 0 0
SMALL
GASTEIGER

@<TRIPOS>ATOM
      1 C          63.8161   87.7316   13.7534 C.2     1  UNL1        0.3767
      2 N          63.5218   86.6264   12.7829 N.2     1  UNL1       -0.0307
      3 C          63.2497   85.3787   13.5699 C.2     1  UNL1        0.2334
      4 C          62.9034   83.9815   13.1482 C.2     1  UNL1        0.0684
      5 C          62.6833   82.9185   14.1833 C.2     1  UNL1        0.1142
      6 C          62.8095   83.2527   15.6402 C.2     1  UNL1        0.0015
      7 C          63.1558   84.6499   16.0619 C.3     1  UNL1        0.1051
      8 C          63.3760   85.7129   15.0268 C.2     1  UNL1        0.2179
      9 N          63.7260   87.1670   15.1401 N.2     1  UNL1       -0.0347
     10 O          65.1244   93.4133   12.3368 O.2     1  UNL1       -0.2666
     11 C          64.7973   91.9929   12.6909 C.ar    1  UNL1        0.2648
     12 C          63.6586   91.2933   12.0099 C.ar    1  UNL1        0.0614
     13 C          63.3315   89.8729   12.3641 C.ar    1  UNL1        0.0141
     14 C          64.1432   89.1521   13.3992 C.ar    1  UNL1        0.1061
     15 C          65.2819   89.8517   14.0802 C.ar    1  UNL1        0.0906
     16 N          65.6090   91.2721   13.7261 N.ar    1  UNL1       -0.2729
     17 C          66.7478   91.9717   14.4071 C.ar    1  UNL1        0.0669
     18 C          66.5138   92.7100   15.6918 C.ar    1  UNL1        0.0176
     19 C          67.6525   93.4095   16.3728 C.ar    1  UNL1        0.0015
     20 C          69.0252   93.3709   15.7693 C.ar    1  UNL1        0.0001
     21 C          69.2592   92.6327   14.4846 C.ar    1  UNL1        0.0015
     22 C          68.1204   91.9331   13.8036 C.ar    1  UNL1        0.0176
     23 S          62.3369   81.5212   13.7616 S.O2    1  UNL1        0.0918
     24 O          63.6142   81.4408   12.9792 O.2     1  UNL1       -0.1612
     25 O          61.0597   81.6017   14.5440 O.2     1  UNL1       -0.1612
     26 C          61.9906   80.1241   13.3399 C.3     1  UNL1        0.5261
     27 F          63.2393   80.0648   12.5110 F       1  UNL1       -0.1500
     28 F          60.7419   80.1833   14.1689 F       1  UNL1       -0.1500
     29 F          61.6444   78.7268   12.9181 F       1  UNL1       -0.1500
@<TRIPOS>BOND
     1    10    11    2
     2    11    12   ar
     3    12    13   ar
     4    13    14   ar
     5    14     1    1
     6     1     2    2
     7     2     3    1
     8     3     4    2
     9     4     5    1
    10     5    23    1
    11    23    24    2
    12    23    25    2
    13    23    26    1
    14    26    27    1
    15    26    28    1
    16    26    29    1
    17     5     6    2
    18     6     7    1
    19     7     8    1
    20     8     9    2
    21    14    15   ar
    22    15    16   ar
    23    16    17    1
    24    17    18   ar
    25    18    19   ar
    26    19    20   ar
    27    20    21   ar
    28    21    22   ar
    29    16    11   ar
    30    22    17   ar
    31     9     1    1
    32     8     3    1
@<TRIPOS>MOLECULE
*****
 29 32 0 0 0
SMALL
GASTEIGER

@<TRIPOS>ATOM
      1 C          62.6759   89.4479   12.8284 C.2     1  UNL1        0.3767
      2 N          63.2359   88.2574   12.1080 N.2     1  UNL1       -0.0307
      3 C          62.3276   87.9430   10.9563 C.2     1  UNL1        0.2334
      4 C          62.3768   86.8782    9.9009 C.2     1  UNL1        0.0684
      5 C          61.3047   86.8098    8.8541 C.2     1  UNL1        0.1142
      6 C          60.1834   87.8061    8.8627 C.2     1  UNL1        0.0015
      7 C          60.1342   88.8708    9.9181 C.3     1  UNL1        0.1051
      8 C          61.2063   88.9393   10.9649 C.2     1  UNL1        0.2179
      9 N          61.4216   89.8694   12.1219 N.2     1  UNL1       -0.0347
     10 O          65.0384   92.0649   17.6832 O.2     1  UNL1       -0.2666
     11 C          64.4478   91.4107   16.4695 C.ar    1  UNL1        0.2648
     12 C          63.0807   90.7973   16.5385 C.ar    1  UNL1        0.0614
     13 C          62.4901   90.1430   15.3248 C.ar    1  UNL1        0.0141
     14 C          63.2665   90.1022   14.0421 C.ar    1  UNL1        0.1061
     15 C          64.6336   90.7156   13.9731 C.ar    1  UNL1        0.0906
     16 N          65.2242   91.3699   15.1868 N.ar    1  UNL1       -0.2729
     17 C          66.5913   91.9833   15.1177 C.ar    1  UNL1        0.0669
     18 C          67.0177   92.9833   16.1512 C.ar    1  UNL1        0.0176
     19 C          68.3848   93.5968   16.0822 C.ar    1  UNL1        0.0015
     20 C          69.3255   93.2102   14.9797 C.ar    1  UNL1        0.0001
     21 C          68.8992   92.2101   13.9462 C.ar    1  UNL1        0.0015
     22 C          67.5320   91.5967   14.0152 C.ar    1  UNL1        0.0176
     23 S          61.3538   85.7450    7.7987 S.O2    1  UNL1        0.0918
     24 O          59.9061   85.9857    7.4886 O.2     1  UNL1       -0.1612
     25 O          62.8015   85.5044    8.1087 O.2     1  UNL1       -0.1612
     26 C          61.4029   84.6803    6.7432 C.3     1  UNL1        0.5261
     27 F          59.9058   84.7004    6.6534 F       1  UNL1       -0.1500
     28 F          62.9001   84.6603    6.8331 F       1  UNL1       -0.1500
     29 F          61.4520   83.6156    5.6878 F       1  UNL1       -0.1500
@<TRIPOS>BOND
     1    10    11    2
     2    11    12   ar
     3    12    13   ar
     4    13    14   ar
     5    14     1    1
     6     1     2    2
     7     2     3    1
     8     3     4    2
     9     4     5    1
    10     5    23    1
    11    23    24    2
    12    23    25    2
    13    23    26    1
    14    26    27    1
    15    26    28    1
    16    26    29    1
    17     5     6    2
    18     6     7    1
    19     7     8    1
    20     8     9    2
    21    14    15   ar
    22    15    16   ar
    23    16    17    1
    24    17    18   ar
    25    18    19   ar
    26    19    20   ar
    27    20    21   ar
    28    21    22   ar
    29    16    11   ar
    30    22    17   ar
    31     9     1    1
    32     8     3    1
