@<TRIPOS>MOLECULE
*****
 25 27 0 0 0
SMALL
GASTEIGER

@<TRIPOS>ATOM
      1 C          63.8044   90.7479   12.6293 C.ar    1  UNL1        0.1386
      2 C          63.5733   89.3245   13.0422 C.ar    1  UNL1        0.0369
      3 C          62.8932   88.3724   12.1037 C.ar    1  UNL1        0.0032
      4 C          62.4441   88.8437   10.7523 C.ar    1  UNL1        0.0019
      5 C          62.6752   90.2671   10.3395 C.ar    1  UNL1        0.0032
      6 C          63.3553   91.2192   11.2780 C.ar    1  UNL1        0.0369
      7 C          61.7639   87.8915    9.8138 C.ar    1  UNL1        0.0257
      8 C          60.2940   88.0242    9.5458 C.ar    1  UNL1        0.1201
      9 N          59.6138   87.0720    8.6072 N.ar    1  UNL1       -0.1687
     10 N          60.4035   85.9872    7.9368 N.ar    1  UNL1       -0.2421
     11 C          61.8735   85.8546    8.2049 C.ar    1  UNL1        0.2733
     12 O          62.6632   84.7697    7.5344 O.2     1  UNL1       -0.2658
     13 C          62.5536   86.8067    9.1434 C.ar    1  UNL1        0.0636
     14 H          59.9572   85.3623    7.3208 H       1  UNL1        0.1921
     15 O          64.4846   91.7001   13.5679 O.3     1  UNL1       -0.4754
     16 C          65.7326   91.2813   14.2870 C.3     1  UNL1        0.2067
     17 C          67.8279   92.6028   15.0702 C.3     1  UNL1        0.0053
     18 C          67.0385   91.9499   13.9745 C.3     1  UNL1        0.0597
     19 C          67.5549   91.9657   12.5663 C.3     1  UNL1        0.0757
     20 N          67.1086   93.0367   11.6157 N.3     1  UNL1       -0.2738
     21 C          66.2159   94.1953   11.9489 C.3     1  UNL1        0.0721
     22 C          66.0322   95.0119   10.7041 C.3     1  UNL1        0.0187
     23 C          66.8113   94.3579    9.6016 C.3     1  UNL1        0.0174
     24 C          67.4765   93.1373   10.1650 C.3     1  UNL1        0.0576
     25 C          68.3554   92.1845    9.4102 C.3     1  UNL1        0.0173
@<TRIPOS>BOND
     1    18    17    1
     2    18    16    1
     3    16    15    1
     4    15     1    1
     5     1     2   ar
     6     2     3   ar
     7     3     4   ar
     8     4     7    1
     9     7     8   ar
    10     8     9   ar
    11     9    10   ar
    12    10    11   ar
    13    11    12    2
    14    11    13   ar
    15     4     5   ar
    16     5     6   ar
    17    18    19    1
    18    19    20    1
    19    20    21    1
    20    21    22    1
    21    22    23    1
    22    23    24    1
    23    24    25    1
    24     6     1   ar
    25    24    20    1
    26    13     7   ar
    27    10    14    1
@<TRIPOS>MOLECULE
*****
 25 27 0 0 0
SMALL
GASTEIGER

@<TRIPOS>ATOM
      1 C          63.9527   90.9032   12.6940 C.ar    1  UNL1        0.1386
      2 C          63.5799   91.4293   11.3397 C.ar    1  UNL1        0.0369
      3 C          62.8537   90.5485   10.3667 C.ar    1  UNL1        0.0032
      4 C          62.5002   89.1415   10.7481 C.ar    1  UNL1        0.0019
      5 C          62.8730   88.6153   12.1023 C.ar    1  UNL1        0.0032
      6 C          63.5992   89.4961   13.0753 C.ar    1  UNL1        0.0369
      7 C          61.7740   88.2607    9.7750 C.ar    1  UNL1        0.0257
      8 C          62.2212   86.8441    9.5674 C.ar    1  UNL1        0.1201
      9 N          61.4950   85.9632    8.5943 N.ar    1  UNL1       -0.1687
     10 N          60.3215   86.4991    7.8290 N.ar    1  UNL1       -0.2421
     11 C          59.8742   87.9157    8.0367 C.ar    1  UNL1        0.2733
     12 O          58.7007   88.4516    7.2713 O.2     1  UNL1       -0.2658
     13 C          60.6005   88.7965    9.0097 C.ar    1  UNL1        0.0636
     14 H          59.8448   85.9210    7.1903 H       1  UNL1        0.1921
     15 O          64.6789   91.7840   13.6670 O.3     1  UNL1       -0.4754
     16 C          65.9516   91.3091   14.3032 C.3     1  UNL1        0.2067
     17 C          68.1490   92.5313   14.9574 C.3     1  UNL1        0.0053
     18 C          67.2617   91.9254   13.9107 C.3     1  UNL1        0.0597
     19 C          67.6844   91.9357   12.4715 C.3     1  UNL1        0.0757
     20 N          67.1691   92.9976   11.5460 N.3     1  UNL1       -0.2738
     21 C          66.2490   94.1219   11.9195 C.3     1  UNL1        0.0721
     22 C          65.9946   94.9409   10.6888 C.3     1  UNL1        0.0187
     23 C          66.7575   94.3228    9.5548 C.3     1  UNL1        0.0174
     24 C          67.4833   93.1218   10.0846 C.3     1  UNL1        0.0576
     25 C          68.3681   92.2058    9.2921 C.3     1  UNL1        0.0173
@<TRIPOS>BOND
     1    18    17    1
     2    18    16    1
     3    16    15    1
     4    15     1    1
     5     1     2   ar
     6     2     3   ar
     7     3     4   ar
     8     4     7    1
     9     7     8   ar
    10     8     9   ar
    11     9    10   ar
    12    10    11   ar
    13    11    12    2
    14    11    13   ar
    15     4     5   ar
    16     5     6   ar
    17    18    19    1
    18    19    20    1
    19    20    21    1
    20    21    22    1
    21    22    23    1
    22    23    24    1
    23    24    25    1
    24     6     1   ar
    25    24    20    1
    26    13     7   ar
    27    10    14    1
@<TRIPOS>MOLECULE
*****
 25 27 0 0 0
SMALL
GASTEIGER

@<TRIPOS>ATOM
      1 C          63.7582   89.4015   13.4764 C.ar    1  UNL1        0.1386
      2 C          64.3605   88.6862   14.6492 C.ar    1  UNL1        0.0369
      3 C          64.3514   87.1871   14.6987 C.ar    1  UNL1        0.0032
      4 C          63.7400   86.4032   13.5754 C.ar    1  UNL1        0.0019
      5 C          63.1377   87.1185   12.4026 C.ar    1  UNL1        0.0032
      6 C          63.1468   88.6177   12.3531 C.ar    1  UNL1        0.0369
      7 C          63.7309   84.9040   13.6250 C.ar    1  UNL1        0.0257
      8 C          63.8800   84.1962   14.9390 C.ar    1  UNL1        0.1201
      9 N          63.8709   82.6969   14.9885 N.ar    1  UNL1       -0.1687
     10 N          63.7127   81.9057   13.7241 N.ar    1  UNL1       -0.2421
     11 C          63.5636   82.6137   12.4100 C.ar    1  UNL1        0.2733
     12 O          63.4054   81.8224   11.1455 O.2     1  UNL1       -0.2658
     13 C          63.5727   84.1128   12.3605 C.ar    1  UNL1        0.0636
     14 H          63.7067   80.9218   13.7565 H       1  UNL1        0.1921
     15 O          63.7673   90.9007   13.4269 O.3     1  UNL1       -0.4754
     16 C          65.0692   91.6403   13.3385 C.3     1  UNL1        0.2067
     17 C          64.6369   92.1009   10.8184 C.3     1  UNL1        0.0053
     18 C          65.4984   92.2505   12.0371 C.3     1  UNL1        0.0597
     19 C          66.7890   93.0104   11.9546 C.3     1  UNL1        0.0757
     20 N          67.0313   93.9557   10.8154 N.3     1  UNL1       -0.2738
     21 C          66.5784   95.3838   10.7432 C.3     1  UNL1        0.0721
     22 C          67.0362   95.9496    9.4316 C.3     1  UNL1        0.0187
     23 C          67.7721   94.8710    8.6932 C.3     1  UNL1        0.0174
     24 C          67.7691   93.6387    9.5485 C.3     1  UNL1        0.0576
     25 C          68.3941   92.3209    9.1982 C.3     1  UNL1        0.0173
@<TRIPOS>BOND
     1    18    17    1
     2    18    16    1
     3    16    15    1
     4    15     1    1
     5     1     2   ar
     6     2     3   ar
     7     3     4   ar
     8     4     7    1
     9     7     8   ar
    10     8     9   ar
    11     9    10   ar
    12    10    11   ar
    13    11    12    2
    14    11    13   ar
    15     4     5   ar
    16     5     6   ar
    17    18    19    1
    18    19    20    1
    19    20    21    1
    20    21    22    1
    21    22    23    1
    22    23    24    1
    23    24    25    1
    24     6     1   ar
    25    24    20    1
    26    13     7   ar
    27    10    14    1
@<TRIPOS>MOLECULE
*****
 25 27 0 0 0
SMALL
GASTEIGER

@<TRIPOS>ATOM
      1 C          62.3645   88.8005   11.1299 C.ar    1  UNL1        0.1386
      2 C          62.6210   90.0877   10.4037 C.ar    1  UNL1        0.0369
      3 C          63.5266   91.1208   11.0057 C.ar    1  UNL1        0.0032
      4 C          64.1758   90.8668   12.3338 C.ar    1  UNL1        0.0019
      5 C          63.9193   89.5797   13.0601 C.ar    1  UNL1        0.0032
      6 C          63.0137   88.5465   12.4581 C.ar    1  UNL1        0.0369
      7 C          65.0814   91.9001   12.9358 C.ar    1  UNL1        0.0257
      8 C          65.6400   92.9980   12.0799 C.ar    1  UNL1        0.1201
      9 N          66.5456   94.0312   12.6818 N.ar    1  UNL1       -0.1687
     10 N          66.8927   93.9665   14.1397 N.ar    1  UNL1       -0.2421
     11 C          66.3340   92.8685   14.9956 C.ar    1  UNL1        0.2733
     12 O          66.6811   92.8038   16.4535 O.2     1  UNL1       -0.2658
     13 C          65.4284   91.8354   14.3937 C.ar    1  UNL1        0.0636
     14 H          67.4871   94.6446   14.5348 H       1  UNL1        0.1921
     15 O          61.4589   87.7673   10.5280 O.3     1  UNL1       -0.4754
     16 C          61.3389   86.4137   11.1630 C.3     1  UNL1        0.2067
     17 C          62.8666   84.9600    9.6454 C.3     1  UNL1        0.0053
     18 C          62.4467   85.4136   11.0121 C.3     1  UNL1        0.0597
     19 C          63.1344   84.8670   12.2280 C.3     1  UNL1        0.0757
     20 N          62.7391   83.5273   12.7746 N.3     1  UNL1       -0.2738
     21 C          62.6169   82.2555   11.9887 C.3     1  UNL1        0.0721
     22 C          62.1990   81.1663   12.9316 C.3     1  UNL1        0.0187
     23 C          62.0628   81.7650   14.3002 C.3     1  UNL1        0.0174
     24 C          62.3967   83.2242   14.2032 C.3     1  UNL1        0.0576
     25 C          62.3894   84.2075   15.3359 C.3     1  UNL1        0.0173
@<TRIPOS>BOND
     1    18    17    1
     2    18    16    1
     3    16    15    1
     4    15     1    1
     5     1     2   ar
     6     2     3   ar
     7     3     4   ar
     8     4     7    1
     9     7     8   ar
    10     8     9   ar
    11     9    10   ar
    12    10    11   ar
    13    11    12    2
    14    11    13   ar
    15     4     5   ar
    16     5     6   ar
    17    18    19    1
    18    19    20    1
    19    20    21    1
    20    21    22    1
    21    22    23    1
    22    23    24    1
    23    24    25    1
    24     6     1   ar
    25    24    20    1
    26    13     7   ar
    27    10    14    1
@<TRIPOS>MOLECULE
*****
 25 27 0 0 0
SMALL
GASTEIGER

@<TRIPOS>ATOM
      1 C          62.8426   89.8071   11.7005 C.ar    1  UNL1        0.1386
      2 C          63.2114   89.1785   13.0115 C.ar    1  UNL1        0.0369
      3 C          64.2663   89.8061   13.8736 C.ar    1  UNL1        0.0032
      4 C          64.9524   91.0622   13.4247 C.ar    1  UNL1        0.0019
      5 C          64.5835   91.6908   12.1137 C.ar    1  UNL1        0.0032
      6 C          63.5287   91.0632   11.2516 C.ar    1  UNL1        0.0369
      7 C          66.0073   91.6898   14.2870 C.ar    1  UNL1        0.0257
      8 C          65.6528   92.2056   15.6501 C.ar    1  UNL1        0.1201
      9 N          66.7077   92.8332   16.5123 N.ar    1  UNL1       -0.1687
     10 N          68.1171   92.9449   16.0113 N.ar    1  UNL1       -0.2421
     11 C          68.4716   92.4290   14.6481 C.ar    1  UNL1        0.2733
     12 O          69.8811   92.5407   14.1471 O.2     1  UNL1       -0.2658
     13 C          67.4167   91.8015   13.7860 C.ar    1  UNL1        0.0636
     14 H          68.8095   93.3568   16.5772 H       1  UNL1        0.1921
     15 O          61.7877   89.1795   10.8382 O.3     1  UNL1       -0.4754
     16 C          62.1603   88.1066    9.8585 C.3     1  UNL1        0.2067
     17 C          60.6442   86.2642    8.8302 C.3     1  UNL1        0.0053
     18 C          61.5177   86.7540    9.9470 C.3     1  UNL1        0.0597
     19 C          61.7485   85.8914   11.1522 C.3     1  UNL1        0.0757
     20 N          62.7365   84.7645   11.0899 N.3     1  UNL1       -0.2738
     21 C          63.3947   84.2366    9.8497 C.3     1  UNL1        0.0721
     22 C          64.3048   83.1135   10.2501 C.3     1  UNL1        0.0187
     23 C          64.2091   82.9473   11.7378 C.3     1  UNL1        0.0174
     24 C          63.2398   83.9677   12.2568 C.3     1  UNL1        0.0576
     25 C          62.8435   84.1578   13.6909 C.3     1  UNL1        0.0173
@<TRIPOS>BOND
     1    18    17    1
     2    18    16    1
     3    16    15    1
     4    15     1    1
     5     1     2   ar
     6     2     3   ar
     7     3     4   ar
     8     4     7    1
     9     7     8   ar
    10     8     9   ar
    11     9    10   ar
    12    10    11   ar
    13    11    12    2
    14    11    13   ar
    15     4     5   ar
    16     5     6   ar
    17    18    19    1
    18    19    20    1
    19    20    21    1
    20    21    22    1
    21    22    23    1
    22    23    24    1
    23    24    25    1
    24     6     1   ar
    25    24    20    1
    26    13     7   ar
    27    10    14    1
@<TRIPOS>MOLECULE
*****
 25 27 0 0 0
SMALL
GASTEIGER

@<TRIPOS>ATOM
      1 C          62.3123   88.7429   11.1670 C.ar    1  UNL1        0.1386
      2 C          62.9650   88.5078   12.4968 C.ar    1  UNL1        0.0369
      3 C          63.8756   89.5476   13.0796 C.ar    1  UNL1        0.0032
      4 C          64.1335   90.8224   12.3324 C.ar    1  UNL1        0.0019
      5 C          63.4808   91.0575   11.0025 C.ar    1  UNL1        0.0032
      6 C          62.5702   90.0177   10.4198 C.ar    1  UNL1        0.0369
      7 C          65.0442   91.8622   12.9152 C.ar    1  UNL1        0.0257
      8 C          65.5986   92.9482   12.0416 C.ar    1  UNL1        0.1201
      9 N          66.5093   93.9880   12.6244 N.ar    1  UNL1       -0.1687
     10 N          66.8655   93.9417   14.0808 N.ar    1  UNL1       -0.2421
     11 C          66.3110   92.8556   14.9543 C.ar    1  UNL1        0.2733
     12 O          66.6673   92.8093   16.4107 O.2     1  UNL1       -0.2658
     13 C          65.4004   91.8159   14.3715 C.ar    1  UNL1        0.0636
     14 H          67.4632   94.6241   14.4633 H       1  UNL1        0.1921
     15 O          61.4016   87.7031   10.5842 O.3     1  UNL1       -0.4754
     16 C          61.3804   86.3177   11.1587 C.3     1  UNL1        0.2067
     17 C          62.8532   85.0188    9.4576 C.3     1  UNL1        0.0053
     18 C          62.5082   85.3704   10.8744 C.3     1  UNL1        0.0597
     19 C          63.2909   84.7747   12.0069 C.3     1  UNL1        0.0757
     20 N          62.8632   83.4692   12.6091 N.3     1  UNL1       -0.2738
     21 C          62.2401   83.2840   13.9610 C.3     1  UNL1        0.0721
     22 C          61.9753   81.8200   14.1527 C.3     1  UNL1        0.0187
     23 C          62.4349   81.1005   12.9193 C.3     1  UNL1        0.0174
     24 C          62.9836   82.1198   11.9654 C.3     1  UNL1        0.0576
     25 C          63.5528   81.8389   10.6063 C.3     1  UNL1        0.0173
@<TRIPOS>BOND
     1    18    17    1
     2    18    16    1
     3    16    15    1
     4    15     1    1
     5     1     2   ar
     6     2     3   ar
     7     3     4   ar
     8     4     7    1
     9     7     8   ar
    10     8     9   ar
    11     9    10   ar
    12    10    11   ar
    13    11    12    2
    14    11    13   ar
    15     4     5   ar
    16     5     6   ar
    17    18    19    1
    18    19    20    1
    19    20    21    1
    20    21    22    1
    21    22    23    1
    22    23    24    1
    23    24    25    1
    24     6     1   ar
    25    24    20    1
    26    13     7   ar
    27    10    14    1
@<TRIPOS>MOLECULE
*****
 25 27 0 0 0
SMALL
GASTEIGER

@<TRIPOS>ATOM
      1 C          63.7192   90.2255   14.1485 C.ar    1  UNL1        0.1386
      2 C          63.2757   90.4827   12.7389 C.ar    1  UNL1        0.0369
      3 C          64.0970   91.3615   11.8428 C.ar    1  UNL1        0.0032
      4 C          65.3619   91.9832   12.3563 C.ar    1  UNL1        0.0019
      5 C          65.8054   91.7260   13.7659 C.ar    1  UNL1        0.0032
      6 C          64.9841   90.8472   14.6620 C.ar    1  UNL1        0.0369
      7 C          66.1832   92.8620   11.4601 C.ar    1  UNL1        0.0257
      8 C          66.1957   94.3468   11.6723 C.ar    1  UNL1        0.1201
      9 N          67.0171   95.2257   10.7762 N.ar    1  UNL1       -0.1687
     10 N          67.8259   94.6196    9.6678 N.ar    1  UNL1       -0.2421
     11 C          67.8134   93.1347    9.4556 C.ar    1  UNL1        0.2733
     12 O          68.6222   92.5287    8.3472 O.2     1  UNL1       -0.2658
     13 C          66.9921   92.2560   10.3518 C.ar    1  UNL1        0.0636
     14 H          68.3650   95.1964    9.0796 H       1  UNL1        0.1921
     15 O          62.8979   89.3467   15.0447 O.3     1  UNL1       -0.4754
     16 C          63.5574   88.5792   16.1519 C.3     1  UNL1        0.2067
     17 C          62.9042   86.2570   17.1167 C.3     1  UNL1        0.0053
     18 C          63.6234   87.0819   16.0909 C.3     1  UNL1        0.0597
     19 C          64.4085   86.4094   15.0040 C.3     1  UNL1        0.0757
     20 N          63.9571   85.0857   14.4618 N.3     1  UNL1       -0.2738
     21 C          64.1861   83.7474   15.0994 C.3     1  UNL1        0.0721
     22 C          63.5680   82.7024   14.2185 C.3     1  UNL1        0.0187
     23 C          62.9570   83.3949   13.0365 C.3     1  UNL1        0.0174
     24 C          63.1975   84.8679   13.1869 C.3     1  UNL1        0.0576
     25 C          62.7559   85.9355   12.2302 C.3     1  UNL1        0.0173
@<TRIPOS>BOND
     1    18    17    1
     2    18    16    1
     3    16    15    1
     4    15     1    1
     5     1     2   ar
     6     2     3   ar
     7     3     4   ar
     8     4     7    1
     9     7     8   ar
    10     8     9   ar
    11     9    10   ar
    12    10    11   ar
    13    11    12    2
    14    11    13   ar
    15     4     5   ar
    16     5     6   ar
    17    18    19    1
    18    19    20    1
    19    20    21    1
    20    21    22    1
    21    22    23    1
    22    23    24    1
    23    24    25    1
    24     6     1   ar
    25    24    20    1
    26    13     7   ar
    27    10    14    1
@<TRIPOS>MOLECULE
*****
 25 27 0 0 0
SMALL
GASTEIGER

@<TRIPOS>ATOM
      1 C          62.0219   88.4360   11.0936 C.ar    1  UNL1        0.1386
      2 C          62.8254   88.4823   12.3593 C.ar    1  UNL1        0.0369
      3 C          63.7233   89.6517   12.6353 C.ar    1  UNL1        0.0032
      4 C          63.8177   90.7748   11.6454 C.ar    1  UNL1        0.0019
      5 C          63.0142   90.7285   10.3797 C.ar    1  UNL1        0.0032
      6 C          62.1163   89.5591   10.1037 C.ar    1  UNL1        0.0369
      7 C          64.7157   91.9443   11.9214 C.ar    1  UNL1        0.0257
      8 C          65.2171   92.1928   13.3131 C.ar    1  UNL1        0.1201
      9 N          66.1151   93.3623   13.5891 N.ar    1  UNL1       -0.1687
     10 N          66.5116   94.2831   12.4734 N.ar    1  UNL1       -0.2421
     11 C          66.0101   94.0345   11.0817 C.ar    1  UNL1        0.2733
     12 O          66.4066   94.9554    9.9659 O.2     1  UNL1       -0.2658
     13 C          65.1122   92.8651   10.8057 C.ar    1  UNL1        0.0636
     14 H          67.1009   95.0507   12.6545 H       1  UNL1        0.1921
     15 O          61.1239   87.2665   10.8176 O.3     1  UNL1       -0.4754
     16 C          61.5596   85.8813   11.1933 C.3     1  UNL1        0.2067
     17 C          62.7275   85.5008    8.9039 C.3     1  UNL1        0.0053
     18 C          62.5766   85.1623   10.3574 C.3     1  UNL1        0.0597
     19 C          63.4427   84.1047   10.9750 C.3     1  UNL1        0.0757
     20 N          63.0171   83.4360   12.2484 N.3     1  UNL1       -0.2738
     21 C          62.3022   82.1218   12.3579 C.3     1  UNL1        0.0721
     22 C          62.0749   81.8376   13.8130 C.3     1  UNL1        0.0187
     23 C          62.6493   82.9762   14.6029 C.3     1  UNL1        0.0174
     24 C          63.2316   83.9640   13.6359 C.3     1  UNL1        0.0576
     25 C          63.9094   85.2534   13.9936 C.3     1  UNL1        0.0173
@<TRIPOS>BOND
     1    18    17    1
     2    18    16    1
     3    16    15    1
     4    15     1    1
     5     1     2   ar
     6     2     3   ar
     7     3     4   ar
     8     4     7    1
     9     7     8   ar
    10     8     9   ar
    11     9    10   ar
    12    10    11   ar
    13    11    12    2
    14    11    13   ar
    15     4     5   ar
    16     5     6   ar
    17    18    19    1
    18    19    20    1
    19    20    21    1
    20    21    22    1
    21    22    23    1
    22    23    24    1
    23    24    25    1
    24     6     1   ar
    25    24    20    1
    26    13     7   ar
    27    10    14    1
@<TRIPOS>MOLECULE
*****
 25 27 0 0 0
SMALL
GASTEIGER

@<TRIPOS>ATOM
      1 C          62.6427   88.9661   11.7563 C.ar    1  UNL1        0.1386
      2 C          62.8564   90.4283   11.4989 C.ar    1  UNL1        0.0369
      3 C          63.7478   91.2265   12.4035 C.ar    1  UNL1        0.0032
      4 C          64.4255   90.5625   13.5653 C.ar    1  UNL1        0.0019
      5 C          64.2117   89.1003   13.8227 C.ar    1  UNL1        0.0032
      6 C          63.3203   88.3021   12.9181 C.ar    1  UNL1        0.0369
      7 C          65.3169   91.3608   14.4699 C.ar    1  UNL1        0.0257
      8 C          64.8044   91.8404   15.7955 C.ar    1  UNL1        0.1201
      9 N          65.6958   92.6387   16.7000 N.ar    1  UNL1       -0.1687
     10 N          67.0998   92.9573   16.2789 N.ar    1  UNL1       -0.2421
     11 C          67.6123   92.4777   14.9533 C.ar    1  UNL1        0.2733
     12 O          69.0163   92.7963   14.5322 O.2     1  UNL1       -0.2658
     13 C          66.7209   91.6794   14.0488 C.ar    1  UNL1        0.0636
     14 H          67.6849   93.4813   16.8726 H       1  UNL1        0.1921
     15 O          61.7512   88.1679   10.8517 O.3     1  UNL1       -0.4754
     16 C          62.3181   87.5134    9.6268 C.3     1  UNL1        0.2067
     17 C          63.0702   85.3697    8.3664 C.3     1  UNL1        0.0053
     18 C          62.4491   86.0203    9.5667 C.3     1  UNL1        0.0597
     19 C          61.9589   85.1779   10.7069 C.3     1  UNL1        0.0757
     20 N          62.9329   84.6292   11.7069 N.3     1  UNL1       -0.2738
     21 C          63.2169   85.1987   13.0653 C.3     1  UNL1        0.0721
     22 C          64.2535   84.3361   13.7221 C.3     1  UNL1        0.0187
     23 C          64.6101   83.2335   12.7696 C.3     1  UNL1        0.0174
     24 C          63.7940   83.4147   11.5242 C.3     1  UNL1        0.0576
     25 C          63.8322   82.5356   10.3094 C.3     1  UNL1        0.0173
@<TRIPOS>BOND
     1    18    17    1
     2    18    16    1
     3    16    15    1
     4    15     1    1
     5     1     2   ar
     6     2     3   ar
     7     3     4   ar
     8     4     7    1
     9     7     8   ar
    10     8     9   ar
    11     9    10   ar
    12    10    11   ar
    13    11    12    2
    14    11    13   ar
    15     4     5   ar
    16     5     6   ar
    17    18    19    1
    18    19    20    1
    19    20    21    1
    20    21    22    1
    21    22    23    1
    22    23    24    1
    23    24    25    1
    24     6     1   ar
    25    24    20    1
    26    13     7   ar
    27    10    14    1
