@<TRIPOS>MOLECULE
*****
 42 46 0 0 0
SMALL
GASTEIGER

@<TRIPOS>ATOM
      1 C          61.5563   87.2545   10.5320 C.ar    1  UNL1        0.0719
      2 C          62.2425   86.0513   11.1076 C.ar    1  UNL1        0.1049
      3 N          62.9522   86.4767   12.3588 N.ar    1  UNL1       -0.2242
      4 N          63.7918   85.7184   13.3436 N.ar    1  UNL1       -0.1422
      5 C          64.3839   86.4263   14.5261 C.ar    1  UNL1        0.2211
      6 N          64.1363   87.8924   14.7238 N.ar    1  UNL1       -0.2060
      7 C          63.2966   88.6507   13.7390 C.ar    1  UNL1        0.1515
      8 C          62.7046   87.9428   12.5565 C.ar    1  UNL1        0.1107
      9 C          61.8419   88.4235   11.4275 C.ar    1  UNL1        0.0040
     10 C          59.4053   88.0748    7.4070 C.ar    1  UNL1        0.3086
     11 N          59.5098   86.5821    7.3032 N.ar    1  UNL1       -0.0923
     12 N          60.3283   86.0931    8.4612 N.ar    1  UNL1       -0.1057
     13 C          60.7296   87.2836    9.2807 C.ar    1  UNL1        0.2525
     14 O          60.1591   88.5084    8.6292 O.2     1  UNL1       -0.4048
     15 N          58.6750   88.9758    6.4557 N.pl3   1  UNL1       -0.2871
     16 H          57.7281   88.8065    6.2460 H       1  UNL1        0.1512
     17 C          59.3875   90.1347    5.8238 C.3     1  UNL1        0.0925
     18 C          58.6022   91.2220    5.1523 C.3     1  UNL1        0.0384
     19 C          59.3163   92.3479    4.4649 C.3     1  UNL1        0.0704
     20 C          60.1437   93.3683    2.2233 C.3     1  UNL1        0.0859
     21 N          59.1409   92.5579    2.9900 N.3     1  UNL1       -0.2963
     22 H          59.1204   91.6326    2.5612 H       1  UNL1        0.1233
     23 C          61.3509   89.8270   11.2288 C.3     1  UNL1        0.0241
     24 C          59.9955   90.2258   11.7329 C.3     1  UNL1        0.0047
     25 C          62.2152   90.8315   10.5262 C.3     1  UNL1        0.0047
     26 N          63.0490   90.1169   13.9367 N.pl3   1  UNL1       -0.2949
     27 H          62.1279   90.4645   13.9397 H       1  UNL1        0.1537
     28 C          64.2047   91.0533   14.1297 C.ar    1  UNL1        0.0775
     29 C          64.9030   91.6386   12.9380 C.ar    1  UNL1        0.0237
     30 C          66.0587   92.5751   13.1311 C.ar    1  UNL1        0.0821
     31 C          66.5162   92.9263   14.5157 C.ar    1  UNL1        0.1468
     32 F          67.6720   93.8628   14.7087 F       1  UNL1       -0.2039
     33 C          65.8180   92.3411   15.7074 C.ar    1  UNL1        0.0607
     34 C          64.6622   91.4046   15.5144 C.ar    1  UNL1        0.1557
     35 F          63.9641   90.8194   16.7060 F       1  UNL1       -0.2028
     36 C          66.7570   93.1603   11.9394 C.2     1  UNL1        0.2480
     37 O          67.9655   92.4792   11.3689 O.2     1  UNL1       -0.2701
     38 N          66.2467   94.4267   11.3183 N.am    1  UNL1       -0.3024
     39 H          65.4535   94.8738   11.6928 H       1  UNL1        0.1497
     40 C          66.9449   95.0120   10.1267 C.3     1  UNL1        0.0720
     41 C          67.7450   94.8302    8.8710 C.3     1  UNL1        0.0213
     42 C          67.3541   96.2075    9.3185 C.3     1  UNL1        0.0213
@<TRIPOS>BOND
     1    20    21    1
     2    21    19    1
     3    19    18    1
     4    18    17    1
     5    17    15    1
     6    15    10    1
     7    10    11   ar
     8    11    12   ar
     9    12    13   ar
    10    13     1    1
    11     1     2   ar
    12     2     3   ar
    13     3     4   ar
    14     4     5   ar
    15     5     6   ar
    16     6     7   ar
    17     7    26    1
    18    26    28    1
    19    28    29   ar
    20    29    30   ar
    21    30    36    1
    22    36    37    2
    23    36    38   am
    24    38    40    1
    25    40    41    1
    26    41    42    1
    27    30    31   ar
    28    31    32    1
    29    31    33   ar
    30    33    34   ar
    31    34    35    1
    32     7     8   ar
    33     8     9   ar
    34     9    23    1
    35    23    24    1
    36    23    25    1
    37    13    14   ar
    38    14    10   ar
    39     9     1   ar
    40     8     3   ar
    41    34    28   ar
    42    42    40    1
    43    21    22    1
    44    15    16    1
    45    26    27    1
    46    38    39    1
@<TRIPOS>MOLECULE
*****
 42 46 0 0 0
SMALL
GASTEIGER

@<TRIPOS>ATOM
      1 C          62.5378   86.2557   11.0987 C.ar    1  UNL1        0.0719
      2 C          63.1817   85.2266   11.9798 C.ar    1  UNL1        0.1049
      3 N          63.5775   85.8965   13.2622 N.ar    1  UNL1       -0.2242
      4 N          64.2499   85.3788   14.4991 N.ar    1  UNL1       -0.1422
      5 C          64.5229   86.3043   15.6475 C.ar    1  UNL1        0.2211
      6 N          64.1236   87.7474   15.5591 N.ar    1  UNL1       -0.2060
      7 C          63.4512   88.2651   14.3222 C.ar    1  UNL1        0.1515
      8 C          63.1782   87.3396   13.1738 C.ar    1  UNL1        0.1107
      9 C          62.5356   87.5616   11.8367 C.ar    1  UNL1        0.0040
     10 C          60.5318   86.0391    7.7829 C.ar    1  UNL1        0.3086
     11 N          61.7721   85.2768    7.4216 N.ar    1  UNL1       -0.0923
     12 N          62.6745   85.2652    8.6198 N.ar    1  UNL1       -0.1057
     13 C          61.9920   86.0203    9.7216 C.ar    1  UNL1        0.2525
     14 O          60.6677   86.4986    9.2043 O.2     1  UNL1       -0.4048
     15 N          59.3612   86.2967    6.8811 N.pl3   1  UNL1       -0.2871
     16 H          59.1059   85.6300    6.2032 H       1  UNL1        0.1512
     17 C          58.5793   87.5702    7.0123 C.3     1  UNL1        0.0925
     18 C          59.2967   88.8766    7.1807 C.3     1  UNL1        0.0384
     19 C          59.3012   89.8790    6.0648 C.3     1  UNL1        0.0704
     20 C          58.0449   91.7570    4.7822 C.3     1  UNL1        0.0859
     21 N          58.0165   90.5151    5.6228 N.3     1  UNL1       -0.2963
     22 H          57.5072   89.8102    5.0897 H       1  UNL1        0.1233
     23 C          61.9872   88.8614   11.3270 C.3     1  UNL1        0.0241
     24 C          62.8632   89.7859   10.5345 C.3     1  UNL1        0.0047
     25 C          60.5628   89.2369   11.6098 C.3     1  UNL1        0.0047
     26 N          63.0519   89.7083   14.2338 N.pl3   1  UNL1       -0.2949
     27 H          62.1121   89.9496   14.0672 H       1  UNL1        0.1537
     28 C          64.0844   90.7836   14.3991 C.ar    1  UNL1        0.0775
     29 C          64.7743   91.3526   13.1947 C.ar    1  UNL1        0.0237
     30 C          65.8068   92.4280   13.3600 C.ar    1  UNL1        0.0821
     31 C          66.1495   92.9345   14.7297 C.ar    1  UNL1        0.1468
     32 F          67.1821   94.0099   14.8950 F       1  UNL1       -0.2039
     33 C          65.4597   92.3656   15.9341 C.ar    1  UNL1        0.0607
     34 C          64.4271   91.2901   15.7688 C.ar    1  UNL1        0.1557
     35 F          63.7373   90.7213   16.9731 F       1  UNL1       -0.2028
     36 C          66.4967   92.9969   12.1557 C.2     1  UNL1        0.2480
     37 O          66.6399   94.4824   12.0053 O.2     1  UNL1       -0.2701
     38 N          67.0434   92.0802   11.1017 N.am    1  UNL1       -0.3024
     39 H          66.9494   91.1052   11.2004 H       1  UNL1        0.1497
     40 C          67.7332   92.6491    9.8973 C.3     1  UNL1        0.0720
     41 C          68.6548   92.4776    8.7263 C.3     1  UNL1        0.0213
     42 C          68.0065   93.8058    8.9824 C.3     1  UNL1        0.0213
@<TRIPOS>BOND
     1    20    21    1
     2    21    19    1
     3    19    18    1
     4    18    17    1
     5    17    15    1
     6    15    10    1
     7    10    11   ar
     8    11    12   ar
     9    12    13   ar
    10    13     1    1
    11     1     2   ar
    12     2     3   ar
    13     3     4   ar
    14     4     5   ar
    15     5     6   ar
    16     6     7   ar
    17     7    26    1
    18    26    28    1
    19    28    29   ar
    20    29    30   ar
    21    30    36    1
    22    36    37    2
    23    36    38   am
    24    38    40    1
    25    40    41    1
    26    41    42    1
    27    30    31   ar
    28    31    32    1
    29    31    33   ar
    30    33    34   ar
    31    34    35    1
    32     7     8   ar
    33     8     9   ar
    34     9    23    1
    35    23    24    1
    36    23    25    1
    37    13    14   ar
    38    14    10   ar
    39     9     1   ar
    40     8     3   ar
    41    34    28   ar
    42    42    40    1
    43    21    22    1
    44    15    16    1
    45    26    27    1
    46    38    39    1
@<TRIPOS>MOLECULE
*****
 42 46 0 0 0
SMALL
GASTEIGER

@<TRIPOS>ATOM
      1 C          62.7695   85.6701   10.9168 C.ar    1  UNL1        0.0719
      2 C          62.1290   86.4076    9.7785 C.ar    1  UNL1        0.1049
      3 N          61.8907   87.8219   10.2180 N.ar    1  UNL1       -0.2242
      4 N          61.2884   89.0030    9.5166 N.ar    1  UNL1       -0.1422
      5 C          61.1793   90.3206   10.2251 C.ar    1  UNL1        0.2211
      6 N          61.6725   90.4570   11.6351 N.ar    1  UNL1       -0.2060
      7 C          62.2749   89.2759   12.3365 C.ar    1  UNL1        0.1515
      8 C          62.3840   87.9584   11.6280 C.ar    1  UNL1        0.1107
      9 C          62.9271   86.6285   12.0599 C.ar    1  UNL1        0.0040
     10 C          63.2107   81.8349   11.3197 C.ar    1  UNL1        0.3086
     11 N          64.4140   82.1798   10.4932 N.ar    1  UNL1       -0.0923
     12 N          64.3952   83.6585   10.2417 N.ar    1  UNL1       -0.1057
     13 C          63.1803   84.2274   10.9127 C.ar    1  UNL1        0.2525
     14 O          62.4482   83.1004   11.5789 O.2     1  UNL1       -0.4048
     15 N          62.8357   80.4650   11.8022 N.pl3   1  UNL1       -0.2871
     16 H          62.5587   79.7747   11.1573 H       1  UNL1        0.1512
     17 C          62.8828   80.1469   13.2674 C.3     1  UNL1        0.0925
     18 C          62.1899   81.0418   14.2517 C.3     1  UNL1        0.0384
     19 C          60.6927   81.1334   14.2573 C.3     1  UNL1        0.0704
     20 C          58.4082   79.9616   14.6553 C.3     1  UNL1        0.0859
     21 N          59.8650   79.8833   14.3064 N.3     1  UNL1       -0.2963
     22 H          59.9239   79.4547   13.3827 H       1  UNL1        0.1233
     23 C          63.5231   86.3125   13.3996 C.3     1  UNL1        0.0241
     24 C          64.5394   87.2351   14.0048 C.3     1  UNL1        0.0047
     25 C          63.1030   85.0741   14.1342 C.3     1  UNL1        0.0047
     26 N          62.7682   89.4124   13.7465 N.pl3   1  UNL1       -0.2949
     27 H          62.3986   88.8375   14.4551 H       1  UNL1        0.1537
     28 C          63.8245   90.4248   14.0769 C.ar    1  UNL1        0.0775
     29 C          64.6608   91.0204   12.9832 C.ar    1  UNL1        0.0237
     30 C          65.7171   92.0327   13.3135 C.ar    1  UNL1        0.0821
     31 C          65.9373   92.4496   14.7375 C.ar    1  UNL1        0.1468
     32 F          66.9937   93.4620   15.0678 F       1  UNL1       -0.2039
     33 C          65.1011   91.8541   15.8312 C.ar    1  UNL1        0.0607
     34 C          64.0447   90.8416   15.5009 C.ar    1  UNL1        0.1557
     35 F          63.2085   90.2461   16.5945 F       1  UNL1       -0.2028
     36 C          66.5534   92.6283   12.2198 C.2     1  UNL1        0.2480
     37 O          67.9850   92.2109   12.0586 O.2     1  UNL1       -0.2701
     38 N          65.9579   93.6412   11.2875 N.am    1  UNL1       -0.3024
     39 H          65.0182   93.9152   11.3933 H       1  UNL1        0.1497
     40 C          66.7940   94.2368   10.1938 C.3     1  UNL1        0.0720
     41 C          67.7398   94.0659    9.0422 C.3     1  UNL1        0.0213
     42 C          67.2965   95.4392    9.4512 C.3     1  UNL1        0.0213
@<TRIPOS>BOND
     1    20    21    1
     2    21    19    1
     3    19    18    1
     4    18    17    1
     5    17    15    1
     6    15    10    1
     7    10    11   ar
     8    11    12   ar
     9    12    13   ar
    10    13     1    1
    11     1     2   ar
    12     2     3   ar
    13     3     4   ar
    14     4     5   ar
    15     5     6   ar
    16     6     7   ar
    17     7    26    1
    18    26    28    1
    19    28    29   ar
    20    29    30   ar
    21    30    36    1
    22    36    37    2
    23    36    38   am
    24    38    40    1
    25    40    41    1
    26    41    42    1
    27    30    31   ar
    28    31    32    1
    29    31    33   ar
    30    33    34   ar
    31    34    35    1
    32     7     8   ar
    33     8     9   ar
    34     9    23    1
    35    23    24    1
    36    23    25    1
    37    13    14   ar
    38    14    10   ar
    39     9     1   ar
    40     8     3   ar
    41    34    28   ar
    42    42    40    1
    43    21    22    1
    44    15    16    1
    45    26    27    1
    46    38    39    1
@<TRIPOS>MOLECULE
*****
 42 46 0 0 0
SMALL
GASTEIGER

@<TRIPOS>ATOM
      1 C          62.5143   85.6987   10.6126 C.ar    1  UNL1        0.0719
      2 C          61.8925   86.3252    9.3998 C.ar    1  UNL1        0.1049
      3 N          61.5332   87.7408    9.7419 N.ar    1  UNL1       -0.2242
      4 N          60.8937   88.8357    8.9406 N.ar    1  UNL1       -0.1422
      5 C          60.6540   90.1790    9.5634 C.ar    1  UNL1        0.2211
      6 N          61.0538   90.4274   10.9877 N.ar    1  UNL1       -0.2060
      7 C          61.6933   89.3325   11.7890 C.ar    1  UNL1        0.1515
      8 C          61.9330   87.9892   11.1662 C.ar    1  UNL1        0.1107
      9 C          62.5393   86.7271   11.7043 C.ar    1  UNL1        0.0040
     10 C          63.1870   81.9304   11.2554 C.ar    1  UNL1        0.3086
     11 N          64.4192   82.3189   10.4932 N.ar    1  UNL1       -0.0923
     12 N          64.3171   83.7778   10.1597 N.ar    1  UNL1       -0.1057
     13 C          63.0219   84.2910   10.7157 C.ar    1  UNL1        0.2525
     14 O          62.3235   83.1492   11.3929 O.2     1  UNL1       -0.4048
     15 N          62.8734   80.5632   11.7867 N.pl3   1  UNL1       -0.2871
     16 H          62.7710   79.8056   11.1664 H       1  UNL1        0.1512
     17 C          62.7159   80.3503   13.2632 C.3     1  UNL1        0.0925
     18 C          61.6554   81.0943   14.0192 C.3     1  UNL1        0.0384
     19 C          61.9884   82.3886   14.7005 C.3     1  UNL1        0.0704
     20 C          64.4312   83.2600   14.5452 C.3     1  UNL1        0.0859
     21 N          63.3402   82.5833   15.3211 N.3     1  UNL1       -0.2963
     22 H          63.1985   83.1317   16.1694 H       1  UNL1        0.1233
     23 C          63.0764   86.5284   13.0907 C.3     1  UNL1        0.0241
     24 C          64.3021   87.2710   13.5338 C.3     1  UNL1        0.0047
     25 C          62.3878   85.5872   14.0340 C.3     1  UNL1        0.0047
     26 N          62.0930   89.5809   13.2133 N.pl3   1  UNL1       -0.2949
     27 H          61.5649   89.1925   13.9477 H       1  UNL1        0.1537
     28 C          63.2974   90.4213   13.5185 C.ar    1  UNL1        0.0775
     29 C          63.9328   91.2426   12.4360 C.ar    1  UNL1        0.0237
     30 C          65.1372   92.0829   12.7413 C.ar    1  UNL1        0.0821
     31 C          65.7063   92.1020   14.1290 C.ar    1  UNL1        0.1468
     32 F          66.9108   92.9424   14.4342 F       1  UNL1       -0.2039
     33 C          65.0710   91.2807   15.2115 C.ar    1  UNL1        0.0607
     34 C          63.8665   90.4403   14.9063 C.ar    1  UNL1        0.1557
     35 F          63.2312   89.6190   15.9887 F       1  UNL1       -0.2028
     36 C          65.7726   92.9043   11.6588 C.2     1  UNL1        0.2480
     37 O          66.3297   92.2341   10.4380 O.2     1  UNL1       -0.2701
     38 N          65.8509   94.3958   11.7972 N.am    1  UNL1       -0.3024
     39 H          65.4853   94.8357   12.5985 H       1  UNL1        0.1497
     40 C          66.4863   95.2172   10.7148 C.3     1  UNL1        0.0720
     41 C          66.7776   96.5541   10.1001 C.3     1  UNL1        0.0213
     42 C          67.2954   95.3030    9.4547 C.3     1  UNL1        0.0213
@<TRIPOS>BOND
     1    20    21    1
     2    21    19    1
     3    19    18    1
     4    18    17    1
     5    17    15    1
     6    15    10    1
     7    10    11   ar
     8    11    12   ar
     9    12    13   ar
    10    13     1    1
    11     1     2   ar
    12     2     3   ar
    13     3     4   ar
    14     4     5   ar
    15     5     6   ar
    16     6     7   ar
    17     7    26    1
    18    26    28    1
    19    28    29   ar
    20    29    30   ar
    21    30    36    1
    22    36    37    2
    23    36    38   am
    24    38    40    1
    25    40    41    1
    26    41    42    1
    27    30    31   ar
    28    31    32    1
    29    31    33   ar
    30    33    34   ar
    31    34    35    1
    32     7     8   ar
    33     8     9   ar
    34     9    23    1
    35    23    24    1
    36    23    25    1
    37    13    14   ar
    38    14    10   ar
    39     9     1   ar
    40     8     3   ar
    41    34    28   ar
    42    42    40    1
    43    21    22    1
    44    15    16    1
    45    26    27    1
    46    38    39    1
