@<TRIPOS>MOLECULE
*****
 22 25 0 0 0
SMALL
GASTEIGER

@<TRIPOS>ATOM
      1 O          62.6165   89.6027   15.1420 O.2     1  UNL1       -0.2638
      2 C          63.2612   90.3380   14.0045 C.2     1  UNL1        0.3160
      3 N          64.3012   91.3830   14.2805 N.am    1  UNL1       -0.1720
      4 C          64.9459   92.1183   13.1430 C.ar    1  UNL1        0.0775
      5 C          65.9859   93.1634   13.4190 C.ar    1  UNL1        0.0172
      6 C          66.6306   93.8986   12.2815 C.ar    1  UNL1        0.0080
      7 C          66.2352   93.5888   10.8681 C.ar    1  UNL1        0.0348
      8 BR         66.8799   94.3241    9.7307 Br      1  UNL1       -0.0490
      9 C          65.1952   92.5438   10.5922 C.ar    1  UNL1        0.0118
     10 C          64.5505   91.8085   11.7296 C.ar    1  UNL1        0.0628
     11 C          63.5105   90.7634   11.4537 C.2     1  UNL1        0.2419
     12 N          62.9215   90.2467   10.1746 N.2     1  UNL1       -0.0302
     13 C          61.9129   89.1921   10.5215 C.2     1  UNL1        0.3765
     14 N          61.8784   89.0570   12.0150 N.2     1  UNL1       -0.0256
     15 C          62.8658   90.0282   12.5911 C.2     1  UNL1        0.2907
     16 C          61.0841   88.4099    9.5461 C.ar    1  UNL1        0.0989
     17 C          60.0953   89.1160    8.6665 C.ar    1  UNL1        0.0085
     18 C          59.2666   88.3337    7.6912 C.ar    1  UNL1        0.0003
     19 C          59.4268   86.8454    7.5954 C.ar    1  UNL1        0.0009
     20 C          60.4156   86.1393    8.4749 C.ar    1  UNL1        0.0116
     21 C          61.2443   86.9215    9.4502 C.ar    1  UNL1        0.0651
     22 CL         62.2331   86.2154   10.3298 Cl      1  UNL1       -0.0820
@<TRIPOS>BOND
     1     1     2    2
     2     2     3    1
     3     3     4    2
     4     4     5   ar
     5     5     6   ar
     6     6     7   ar
     7     7     8    1
     8     7     9   ar
     9     9    10   ar
    10    10    11    2
    11    11    12    1
    12    12    13    2
    13    13    16    1
    14    16    17   ar
    15    17    18   ar
    16    18    19   ar
    17    19    20   ar
    18    20    21   ar
    19    21    22    1
    20    13    14    1
    21    14    15    2
    22    15     2    1
    23    10     4   ar
    24    15    11    1
    25    21    16   ar
@<TRIPOS>MOLECULE
*****
 22 25 0 0 0
SMALL
GASTEIGER

@<TRIPOS>ATOM
      1 O          60.7589   87.3104    8.5661 O.2     1  UNL1       -0.2638
      2 C          61.5565   87.7430    9.7607 C.2     1  UNL1        0.3160
      3 N          61.9019   89.1906    9.9475 N.am    1  UNL1       -0.1720
      4 C          62.6995   89.6232   11.1421 C.ar    1  UNL1        0.0775
      5 C          63.0449   91.0709   11.3289 C.ar    1  UNL1        0.0172
      6 C          63.8424   91.5034   12.5234 C.ar    1  UNL1        0.0080
      7 C          64.2945   90.4884   13.5310 C.ar    1  UNL1        0.0348
      8 BR         65.0920   90.9210   14.7256 Br      1  UNL1       -0.0490
      9 C          63.9490   89.0407   13.3442 C.ar    1  UNL1        0.0118
     10 C          63.1515   88.6082   12.1497 C.ar    1  UNL1        0.0628
     11 C          62.8060   87.1605   11.9628 C.2     1  UNL1        0.2419
     12 N          63.1110   85.9419   12.7825 N.2     1  UNL1       -0.0302
     13 C          62.5020   84.7562   12.0947 C.2     1  UNL1        0.3765
     14 N          61.8206   85.2420   10.8498 N.2     1  UNL1       -0.0256
     15 C          62.0085   86.7279   10.7683 C.2     1  UNL1        0.2907
     16 C          62.5635   83.3343   12.5686 C.ar    1  UNL1        0.0989
     17 C          62.0092   82.9672   13.9131 C.ar    1  UNL1        0.0085
     18 C          62.0707   81.5454   14.3869 C.ar    1  UNL1        0.0003
     19 C          62.6867   80.4906   13.5162 C.ar    1  UNL1        0.0009
     20 C          63.2410   80.8577   12.1716 C.ar    1  UNL1        0.0116
     21 C          63.1795   82.2796   11.6978 C.ar    1  UNL1        0.0651
     22 CL         63.7338   82.6468   10.3532 Cl      1  UNL1       -0.0820
@<TRIPOS>BOND
     1     1     2    2
     2     2     3    1
     3     3     4    2
     4     4     5   ar
     5     5     6   ar
     6     6     7   ar
     7     7     8    1
     8     7     9   ar
     9     9    10   ar
    10    10    11    2
    11    11    12    1
    12    12    13    2
    13    13    16    1
    14    16    17   ar
    15    17    18   ar
    16    18    19   ar
    17    19    20   ar
    18    20    21   ar
    19    21    22    1
    20    13    14    1
    21    14    15    2
    22    15     2    1
    23    10     4   ar
    24    15    11    1
    25    21    16   ar
@<TRIPOS>MOLECULE
*****
 22 25 0 0 0
SMALL
GASTEIGER

@<TRIPOS>ATOM
      1 O          62.6678   85.0497   12.5067 O.2     1  UNL1       -0.2638
      2 C          62.1565   86.0864   11.5506 C.2     1  UNL1        0.3160
      3 N          61.2147   85.6933   10.4513 N.am    1  UNL1       -0.1720
      4 C          60.7034   86.7300    9.4953 C.ar    1  UNL1        0.0775
      5 C          59.7616   86.3369    8.3959 C.ar    1  UNL1        0.0172
      6 C          59.2504   87.3735    7.4400 C.ar    1  UNL1        0.0080
      7 C          59.6809   88.8032    7.5833 C.ar    1  UNL1        0.0348
      8 BR         59.1696   89.8399    6.6272 Br      1  UNL1       -0.0490
      9 C          60.6226   89.1963    8.6826 C.ar    1  UNL1        0.0118
     10 C          61.1339   88.1597    9.6386 C.ar    1  UNL1        0.0628
     11 C          62.0757   88.5528   10.7380 C.2     1  UNL1        0.2419
     12 N          62.6712   89.8740   11.1248 N.2     1  UNL1       -0.0302
     13 C          63.5505   89.6539   12.3200 C.2     1  UNL1        0.3765
     14 N          63.4985   88.1967   12.6717 N.2     1  UNL1       -0.0256
     15 C          62.5870   87.5161   11.6940 C.2     1  UNL1        0.2907
     16 C          64.3428   90.7064   13.0375 C.ar    1  UNL1        0.0989
     17 C          64.5710   90.5957   14.5158 C.ar    1  UNL1        0.0085
     18 C          65.3633   91.6481   15.2332 C.ar    1  UNL1        0.0003
     19 C          65.9273   92.8112   14.4722 C.ar    1  UNL1        0.0009
     20 C          65.6991   92.9219   12.9939 C.ar    1  UNL1        0.0116
     21 C          64.9068   91.8694   12.2765 C.ar    1  UNL1        0.0651
     22 CL         64.6786   91.9801   10.7980 Cl      1  UNL1       -0.0820
@<TRIPOS>BOND
     1     1     2    2
     2     2     3    1
     3     3     4    2
     4     4     5   ar
     5     5     6   ar
     6     6     7   ar
     7     7     8    1
     8     7     9   ar
     9     9    10   ar
    10    10    11    2
    11    11    12    1
    12    12    13    2
    13    13    16    1
    14    16    17   ar
    15    17    18   ar
    16    18    19   ar
    17    19    20   ar
    18    20    21   ar
    19    21    22    1
    20    13    14    1
    21    14    15    2
    22    15     2    1
    23    10     4   ar
    24    15    11    1
    25    21    16   ar
@<TRIPOS>MOLECULE
*****
 22 25 0 0 0
SMALL
GASTEIGER

@<TRIPOS>ATOM
      1 O          64.6454   88.0948   14.6003 O.2     1  UNL1       -0.2638
      2 C          63.7505   88.0108   13.3993 C.2     1  UNL1        0.3160
      3 N          63.3651   89.2592   12.6625 N.am    1  UNL1       -0.1720
      4 C          62.4702   89.1752   11.4615 C.ar    1  UNL1        0.0775
      5 C          62.0847   90.4235   10.7247 C.ar    1  UNL1        0.0172
      6 C          61.1898   90.3395    9.5238 C.ar    1  UNL1        0.0080
      7 C          60.6804   89.0071    9.0598 C.ar    1  UNL1        0.0348
      8 BR         59.7855   88.9231    7.8589 Br      1  UNL1       -0.0490
      9 C          61.0659   87.7588    9.7967 C.ar    1  UNL1        0.0118
     10 C          61.9607   87.8428   10.9976 C.ar    1  UNL1        0.0628
     11 C          62.3462   86.5944   11.7345 C.2     1  UNL1        0.2419
     12 N          62.0016   85.1515   11.5132 N.2     1  UNL1       -0.0302
     13 C          62.6835   84.3436   12.5774 C.2     1  UNL1        0.3765
     14 N          63.4496   85.2874   13.4563 N.2     1  UNL1       -0.0256
     15 C          63.2411   86.6785   12.9354 C.2     1  UNL1        0.2907
     16 C          62.6119   82.8536   12.7349 C.ar    1  UNL1        0.0989
     17 C          62.0034   82.2584   13.9700 C.ar    1  UNL1        0.0085
     18 C          61.9318   80.7684   14.1275 C.ar    1  UNL1        0.0003
     19 C          62.4688   79.8737   13.0499 C.ar    1  UNL1        0.0009
     20 C          63.0773   80.4689   11.8149 C.ar    1  UNL1        0.0116
     21 C          63.1489   81.9588   11.6574 C.ar    1  UNL1        0.0651
     22 CL         63.7575   82.5541   10.4223 Cl      1  UNL1       -0.0820
@<TRIPOS>BOND
     1     1     2    2
     2     2     3    1
     3     3     4    2
     4     4     5   ar
     5     5     6   ar
     6     6     7   ar
     7     7     8    1
     8     7     9   ar
     9     9    10   ar
    10    10    11    2
    11    11    12    1
    12    12    13    2
    13    13    16    1
    14    16    17   ar
    15    17    18   ar
    16    18    19   ar
    17    19    20   ar
    18    20    21   ar
    19    21    22    1
    20    13    14    1
    21    14    15    2
    22    15     2    1
    23    10     4   ar
    24    15    11    1
    25    21    16   ar
@<TRIPOS>MOLECULE
*****
 22 25 0 0 0
SMALL
GASTEIGER

@<TRIPOS>ATOM
      1 O          62.3746   86.2614   18.1294 O.2     1  UNL1       -0.2638
      2 C          62.6793   85.7495   16.7527 C.2     1  UNL1        0.3160
      3 N          62.4161   84.3128   16.4114 N.am    1  UNL1       -0.1720
      4 C          62.7209   83.8010   15.0347 C.ar    1  UNL1        0.0775
      5 C          62.4577   82.3642   14.6934 C.ar    1  UNL1        0.0172
      6 C          62.7624   81.8525   13.3168 C.ar    1  UNL1        0.0080
      7 C          63.3303   82.7774   12.2814 C.ar    1  UNL1        0.0348
      8 BR         63.6351   82.2655   10.9047 Br      1  UNL1       -0.0490
      9 C          63.5935   84.2141   12.6227 C.ar    1  UNL1        0.0118
     10 C          63.2888   84.7259   13.9993 C.ar    1  UNL1        0.0628
     11 C          63.5519   86.1627   14.3407 C.2     1  UNL1        0.2419
     12 N          64.1024   87.3013   13.5341 N.2     1  UNL1       -0.0302
     13 C          64.1379   88.5168   14.4123 C.2     1  UNL1        0.3765
     14 N          63.6094   88.1294   15.7616 N.2     1  UNL1       -0.0256
     15 C          63.2472   86.6745   15.7173 C.2     1  UNL1        0.2907
     16 C          64.6178   89.8804   14.0116 C.ar    1  UNL1        0.0989
     17 C          65.6720   90.5730   14.8232 C.ar    1  UNL1        0.0085
     18 C          66.1518   91.9365   14.4224 C.ar    1  UNL1        0.0003
     19 C          65.5773   92.6073   13.2100 C.ar    1  UNL1        0.0009
     20 C          64.5231   91.9147   12.3984 C.ar    1  UNL1        0.0116
     21 C          64.0433   90.5513   12.7992 C.ar    1  UNL1        0.0651
     22 CL         62.9889   89.8586   11.9875 Cl      1  UNL1       -0.0820
@<TRIPOS>BOND
     1     1     2    2
     2     2     3    1
     3     3     4    2
     4     4     5   ar
     5     5     6   ar
     6     6     7   ar
     7     7     8    1
     8     7     9   ar
     9     9    10   ar
    10    10    11    2
    11    11    12    1
    12    12    13    2
    13    13    16    1
    14    16    17   ar
    15    17    18   ar
    16    18    19   ar
    17    19    20   ar
    18    20    21   ar
    19    21    22    1
    20    13    14    1
    21    14    15    2
    22    15     2    1
    23    10     4   ar
    24    15    11    1
    25    21    16   ar
@<TRIPOS>MOLECULE
*****
 22 25 0 0 0
SMALL
GASTEIGER

@<TRIPOS>ATOM
      1 O          58.8710   91.2737   11.4991 O.2     1  UNL1       -0.2638
      2 C          59.7888   90.2140   10.9656 C.2     1  UNL1        0.3160
      3 N          59.2510   89.1373   10.0703 N.am    1  UNL1       -0.1720
      4 C          60.1689   88.0776    9.5368 C.ar    1  UNL1        0.0775
      5 C          59.6311   87.0009    8.6416 C.ar    1  UNL1        0.0172
      6 C          60.5489   85.9412    8.1081 C.ar    1  UNL1        0.0080
      7 C          62.0046   85.9583    8.4698 C.ar    1  UNL1        0.0348
      8 BR         62.9224   84.8986    7.9362 Br      1  UNL1       -0.0490
      9 C          62.5424   87.0350    9.3650 C.ar    1  UNL1        0.0118
     10 C          61.6245   88.0946    9.8985 C.ar    1  UNL1        0.0628
     11 C          62.1623   89.1714   10.7938 C.2     1  UNL1        0.2419
     12 N          63.5405   89.4445   11.3190 N.2     1  UNL1       -0.0302
     13 C          63.4744   90.6730   12.1772 C.2     1  UNL1        0.3765
     14 N          62.0554   91.1591   12.1823 N.2     1  UNL1       -0.0256
     15 C          61.2445   90.2310   11.3273 C.2     1  UNL1        0.2907
     16 C          64.6254   91.3044   12.9030 C.ar    1  UNL1        0.0989
     17 C          64.9453   90.8882   14.3081 C.ar    1  UNL1        0.0085
     18 C          66.0962   91.5197   15.0337 C.ar    1  UNL1        0.0003
     19 C          66.9272   92.5674   14.3542 C.ar    1  UNL1        0.0009
     20 C          66.6073   92.9836   12.9491 C.ar    1  UNL1        0.0116
     21 C          65.4564   92.3522   12.2235 C.ar    1  UNL1        0.0651
     22 CL         65.1365   92.7684   10.8183 Cl      1  UNL1       -0.0820
@<TRIPOS>BOND
     1     1     2    2
     2     2     3    1
     3     3     4    2
     4     4     5   ar
     5     5     6   ar
     6     6     7   ar
     7     7     8    1
     8     7     9   ar
     9     9    10   ar
    10    10    11    2
    11    11    12    1
    12    12    13    2
    13    13    16    1
    14    16    17   ar
    15    17    18   ar
    16    18    19   ar
    17    19    20   ar
    18    20    21   ar
    19    21    22    1
    20    13    14    1
    21    14    15    2
    22    15     2    1
    23    10     4   ar
    24    15    11    1
    25    21    16   ar
@<TRIPOS>MOLECULE
*****
 22 25 0 0 0
SMALL
GASTEIGER

@<TRIPOS>ATOM
      1 O          64.2474   88.1543   14.1273 O.2     1  UNL1       -0.2638
      2 C          63.8153   86.7811   13.7058 C.2     1  UNL1        0.3160
      3 N          64.2770   85.5800   14.4765 N.am    1  UNL1       -0.1720
      4 C          63.8449   84.2068   14.0549 C.ar    1  UNL1        0.0775
      5 C          64.3066   83.0056   14.8257 C.ar    1  UNL1        0.0172
      6 C          63.8745   81.6325   14.4041 C.ar    1  UNL1        0.0080
      7 C          62.9808   81.4605   13.2118 C.ar    1  UNL1        0.0348
      8 BR         62.5487   80.0873   12.7902 Br      1  UNL1       -0.0490
      9 C          62.5191   82.6616   12.4410 C.ar    1  UNL1        0.0118
     10 C          62.9512   84.0348   12.8626 C.ar    1  UNL1        0.0628
     11 C          62.4895   85.2360   12.0918 C.2     1  UNL1        0.2419
     12 N          61.6117   85.3767   10.8837 N.2     1  UNL1       -0.0302
     13 C          61.5013   86.8369   10.5586 C.2     1  UNL1        0.3765
     14 N          62.3108   87.5985   11.5658 N.2     1  UNL1       -0.0256
     15 C          62.9216   86.6091   12.5134 C.2     1  UNL1        0.2907
     16 C          60.7187   87.4311    9.4251 C.ar    1  UNL1        0.0989
     17 C          59.9038   86.5448    8.5306 C.ar    1  UNL1        0.0085
     18 C          59.1213   87.1390    7.3972 C.ar    1  UNL1        0.0003
     19 C          59.1537   88.6195    7.1584 C.ar    1  UNL1        0.0009
     20 C          59.9686   89.5058    8.0530 C.ar    1  UNL1        0.0116
     21 C          60.7511   88.9116    9.1864 C.ar    1  UNL1        0.0651
     22 CL         61.5661   89.7979   10.0810 Cl      1  UNL1       -0.0820
@<TRIPOS>BOND
     1     1     2    2
     2     2     3    1
     3     3     4    2
     4     4     5   ar
     5     5     6   ar
     6     6     7   ar
     7     7     8    1
     8     7     9   ar
     9     9    10   ar
    10    10    11    2
    11    11    12    1
    12    12    13    2
    13    13    16    1
    14    16    17   ar
    15    17    18   ar
    16    18    19   ar
    17    19    20   ar
    18    20    21   ar
    19    21    22    1
    20    13    14    1
    21    14    15    2
    22    15     2    1
    23    10     4   ar
    24    15    11    1
    25    21    16   ar
@<TRIPOS>MOLECULE
*****
 22 25 0 0 0
SMALL
GASTEIGER

@<TRIPOS>ATOM
      1 O          60.8548   88.5403    8.8645 O.2     1  UNL1       -0.2638
      2 C          61.7491   88.8001   10.0405 C.2     1  UNL1        0.3160
      3 N          62.2129   90.1955   10.3363 N.am    1  UNL1       -0.1720
      4 C          63.1071   90.4553   11.5123 C.ar    1  UNL1        0.0775
      5 C          63.5709   91.8507   11.8081 C.ar    1  UNL1        0.0172
      6 C          64.4651   92.1104   12.9840 C.ar    1  UNL1        0.0080
      7 C          64.8955   90.9746   13.8642 C.ar    1  UNL1        0.0348
      8 BR         65.7897   91.2343   15.0402 Br      1  UNL1       -0.0490
      9 C          64.4317   89.5791   13.5684 C.ar    1  UNL1        0.0118
     10 C          63.5375   89.3195   12.3925 C.ar    1  UNL1        0.0628
     11 C          63.0737   87.9239   12.0966 C.2     1  UNL1        0.2419
     12 N          63.3317   86.6143   12.7809 N.2     1  UNL1       -0.0302
     13 C          62.5969   85.5452   12.0279 C.2     1  UNL1        0.3765
     14 N          61.8848   86.1941   10.8782 N.2     1  UNL1       -0.0256
     15 C          62.1795   87.6643   10.9207 C.2     1  UNL1        0.2907
     16 C          62.5776   84.0837   12.3653 C.ar    1  UNL1        0.0989
     17 C          62.8621   83.0647   11.3020 C.ar    1  UNL1        0.0085
     18 C          62.8428   81.6033   11.6395 C.ar    1  UNL1        0.0003
     19 C          62.5391   81.1610   13.0402 C.ar    1  UNL1        0.0009
     20 C          62.2547   82.1800   14.1035 C.ar    1  UNL1        0.0116
     21 C          62.2739   83.6414   13.7660 C.ar    1  UNL1        0.0651
     22 CL         61.9895   84.6605   14.8294 Cl      1  UNL1       -0.0820
@<TRIPOS>BOND
     1     1     2    2
     2     2     3    1
     3     3     4    2
     4     4     5   ar
     5     5     6   ar
     6     6     7   ar
     7     7     8    1
     8     7     9   ar
     9     9    10   ar
    10    10    11    2
    11    11    12    1
    12    12    13    2
    13    13    16    1
    14    16    17   ar
    15    17    18   ar
    16    18    19   ar
    17    19    20   ar
    18    20    21   ar
    19    21    22    1
    20    13    14    1
    21    14    15    2
    22    15     2    1
    23    10     4   ar
    24    15    11    1
    25    21    16   ar
@<TRIPOS>MOLECULE
*****
 22 25 0 0 0
SMALL
GASTEIGER

@<TRIPOS>ATOM
      1 O          61.5232   88.9325    9.5953 O.2     1  UNL1       -0.2638
      2 C          62.0533   87.8992   10.5447 C.2     1  UNL1        0.3160
      3 N          61.8172   86.4425   10.2762 N.am    1  UNL1       -0.1720
      4 C          62.3473   85.4092   11.2257 C.ar    1  UNL1        0.0775
      5 C          62.1111   83.9525   10.9571 C.ar    1  UNL1        0.0172
      6 C          62.6412   82.9193   11.9066 C.ar    1  UNL1        0.0080
      7 C          63.4075   83.3429   13.1245 C.ar    1  UNL1        0.0348
      8 BR         63.9376   82.3096   14.0740 Br      1  UNL1       -0.0490
      9 C          63.6437   84.7996   13.3931 C.ar    1  UNL1        0.0118
     10 C          63.1135   85.8328   12.4436 C.ar    1  UNL1        0.0628
     11 C          63.3497   87.2896   12.7121 C.2     1  UNL1        0.2419
     12 N          64.0639   88.0027   13.8218 N.2     1  UNL1       -0.0302
     13 C          63.9752   89.4767   13.5581 C.2     1  UNL1        0.3765
     14 N          63.2062   89.6745   12.2855 N.2     1  UNL1       -0.0256
     15 C          62.8196   88.3227   11.7627 C.2     1  UNL1        0.2907
     16 C          64.5540   90.5623   14.4164 C.ar    1  UNL1        0.0989
     17 C          65.6640   91.4229   13.8900 C.ar    1  UNL1        0.0085
     18 C          66.2428   92.5084   14.7483 C.ar    1  UNL1        0.0003
     19 C          65.7114   92.7333   16.1329 C.ar    1  UNL1        0.0009
     20 C          64.6014   91.8727   16.6592 C.ar    1  UNL1        0.0116
     21 C          64.0227   90.7872   15.8010 C.ar    1  UNL1        0.0651
     22 CL         62.9125   89.9265   16.3273 Cl      1  UNL1       -0.0820
@<TRIPOS>BOND
     1     1     2    2
     2     2     3    1
     3     3     4    2
     4     4     5   ar
     5     5     6   ar
     6     6     7   ar
     7     7     8    1
     8     7     9   ar
     9     9    10   ar
    10    10    11    2
    11    11    12    1
    12    12    13    2
    13    13    16    1
    14    16    17   ar
    15    17    18   ar
    16    18    19   ar
    17    19    20   ar
    18    20    21   ar
    19    21    22    1
    20    13    14    1
    21    14    15    2
    22    15     2    1
    23    10     4   ar
    24    15    11    1
    25    21    16   ar
