@<TRIPOS>MOLECULE
*****
 33 37 0 0 0
SMALL
GASTEIGER

@<TRIPOS>ATOM
      1 N          63.8357   84.9659   13.4887 N.ar    1  UNL1       -0.2444
      2 C          64.3849   86.1748   14.1866 C.ar    1  UNL1        0.2659
      3 O          65.2998   86.0102   15.3638 O.2     1  UNL1       -0.2668
      4 C          64.0191   87.5483   13.7072 C.ar    1  UNL1        0.0735
      5 C          64.5683   88.7572   14.4051 C.ar    1  UNL1        0.0261
      6 C          64.2025   90.1306   13.9257 C.ar    1  UNL1        0.1222
      7 C          63.2876   90.2952   12.7485 C.ar    1  UNL1        0.0214
      8 C          62.7384   89.0863   12.0506 C.ar    1  UNL1        0.0188
      9 C          63.1042   87.7129   12.5300 C.ar    1  UNL1        0.0685
     10 N          62.5550   86.5040   11.8321 N.ar    1  UNL1       -0.2810
     11 C          62.9208   85.1305   12.3115 C.ar    1  UNL1        0.3340
     12 O          62.3716   83.9216   11.6136 O.2     1  UNL1       -0.2462
     13 S          64.7516   91.3396   14.6235 S.O2    1  UNL1        0.0601
     14 O          66.0114   91.2332   13.8163 O.2     1  UNL1       -0.1530
     15 O          63.4919   91.4459   15.4307 O.2     1  UNL1       -0.1530
     16 N          65.3008   92.5485   15.3213 N.3     1  UNL1       -0.1820
     17 H          65.2416   92.3628   16.3225 H       1  UNL1        0.1487
     18 C          66.7048   92.9997   15.0469 C.3     1  UNL1        0.0622
     19 C          66.4867   93.7737   13.7806 C.3     1  UNL1        0.0175
     20 C          68.1845   93.1822   15.2121 C.3     1  UNL1        0.0175
     21 C          67.4103   92.3824   16.2178 C.3     1  UNL1        0.0175
     22 C          64.2015   83.5924   13.9681 C.3     1  UNL1        0.1434
     23 C          59.9633   80.4541   14.2308 C.3     1  UNL1        0.1537
     24 N          61.3115   81.0034   13.8693 N.ar    1  UNL1       -0.2476
     25 C          61.8992   82.2927   14.3615 C.ar    1  UNL1        0.0943
     26 C          63.2596   82.4459   13.7485 C.ar    1  UNL1        0.0403
     27 C          63.5127   81.2513   12.8774 C.ar    1  UNL1        0.1193
     28 N          62.3087   80.3597   12.9520 N.ar    1  UNL1       -0.1679
     29 C          61.6401   86.6685   10.6549 C.3     1  UNL1        0.1155
     30 C          61.9901   86.0387    9.3392 C.3     1  UNL1        0.0819
     31 C          61.2944   85.8827    8.0195 C.3     1  UNL1        0.1465
     32 O          62.4850   85.1480    7.4787 O.3     1  UNL1       -0.3535
     33 C          63.1807   85.3040    8.7984 C.3     1  UNL1        0.1465
@<TRIPOS>BOND
     1    23    24    1
     2    24    25   ar
     3    25    26   ar
     4    26    22    1
     5    22     1    1
     6     1     2   ar
     7     2     3    2
     8     2     4   ar
     9     4     5   ar
    10     5     6   ar
    11     6    13    1
    12    13    14    2
    13    13    15    2
    14    13    16    1
    15    16    18    1
    16    18    19    1
    17    18    20    1
    18    20    21    1
    19     6     7   ar
    20     7     8   ar
    21     8     9   ar
    22     9    10   ar
    23    10    29    1
    24    29    30    1
    25    30    31    1
    26    31    32    1
    27    32    33    1
    28    10    11   ar
    29    11    12    2
    30    26    27   ar
    31    27    28   ar
    32    28    24   ar
    33    11     1   ar
    34     9     4   ar
    35    33    30    1
    36    21    18    1
    37    16    17    1
@<TRIPOS>MOLECULE
*****
 33 37 0 0 0
SMALL
GASTEIGER

@<TRIPOS>ATOM
      1 N          62.7017   85.9014   12.4384 N.ar    1  UNL1       -0.2444
      2 C          63.5118   86.9200   13.1841 C.ar    1  UNL1        0.2659
      3 O          64.3314   86.5047   14.3698 O.2     1  UNL1       -0.2668
      4 C          63.5024   88.3541   12.7441 C.ar    1  UNL1        0.0735
      5 C          64.3125   89.3727   13.4899 C.ar    1  UNL1        0.0261
      6 C          64.3030   90.8067   13.0499 C.ar    1  UNL1        0.1222
      7 C          63.4835   91.2220   11.8642 C.ar    1  UNL1        0.0214
      8 C          62.6734   90.2034   11.1185 C.ar    1  UNL1        0.0188
      9 C          62.6828   88.7694   11.5585 C.ar    1  UNL1        0.0685
     10 N          61.8727   87.7507   10.8127 N.ar    1  UNL1       -0.2810
     11 C          61.8822   86.3168   11.2527 C.ar    1  UNL1        0.3340
     12 O          61.0721   85.2981   10.5070 O.2     1  UNL1       -0.2462
     13 S          65.1131   91.8254   13.7956 S.O2    1  UNL1        0.0601
     14 O          65.0695   92.7334   12.6025 O.2     1  UNL1       -0.1530
     15 O          65.1568   90.9173   14.9887 O.2     1  UNL1       -0.1530
     16 N          65.9232   92.8441   14.5413 N.3     1  UNL1       -0.1820
     17 H          65.4493   93.0037   15.4303 H       1  UNL1        0.1487
     18 C          67.3628   92.5696   14.8611 C.3     1  UNL1        0.0622
     19 C          67.8017   91.9446   13.5700 C.3     1  UNL1        0.0175
     20 C          68.6499   92.5121   15.6292 C.3     1  UNL1        0.0175
     21 C          67.4237   93.0992   16.2631 C.3     1  UNL1        0.0175
     22 C          62.7112   84.4674   12.8783 C.3     1  UNL1        0.1434
     23 C          63.0089   79.9287   10.1965 C.3     1  UNL1        0.1537
     24 N          63.3058   81.3098   10.7009 N.ar    1  UNL1       -0.2476
     25 C          62.5196   82.0583   11.7361 C.ar    1  UNL1        0.0943
     26 C          63.1689   83.3960   11.9336 C.ar    1  UNL1        0.0403
     27 C          64.3564   83.4742   11.0204 C.ar    1  UNL1        0.1193
     28 N          64.4410   82.1849   10.2585 N.ar    1  UNL1       -0.1679
     29 C          61.0532   88.1661    9.6270 C.3     1  UNL1        0.1155
     30 C          60.5687   87.1345    8.6518 C.3     1  UNL1        0.0819
     31 C          61.2265   86.0974    7.7905 C.3     1  UNL1        0.1465
     32 O          59.8834   85.6756    7.2726 O.3     1  UNL1       -0.3535
     33 C          59.2256   86.7128    8.1338 C.3     1  UNL1        0.1465
@<TRIPOS>BOND
     1    23    24    1
     2    24    25   ar
     3    25    26   ar
     4    26    22    1
     5    22     1    1
     6     1     2   ar
     7     2     3    2
     8     2     4   ar
     9     4     5   ar
    10     5     6   ar
    11     6    13    1
    12    13    14    2
    13    13    15    2
    14    13    16    1
    15    16    18    1
    16    18    19    1
    17    18    20    1
    18    20    21    1
    19     6     7   ar
    20     7     8   ar
    21     8     9   ar
    22     9    10   ar
    23    10    29    1
    24    29    30    1
    25    30    31    1
    26    31    32    1
    27    32    33    1
    28    10    11   ar
    29    11    12    2
    30    26    27   ar
    31    27    28   ar
    32    28    24   ar
    33    11     1   ar
    34     9     4   ar
    35    33    30    1
    36    21    18    1
    37    16    17    1
@<TRIPOS>MOLECULE
*****
 33 37 0 0 0
SMALL
GASTEIGER

@<TRIPOS>ATOM
      1 N          63.3520   89.6804   12.8620 N.ar    1  UNL1       -0.2444
      2 C          63.5884   88.2865   13.3630 C.ar    1  UNL1        0.2659
      3 O          64.2143   88.0692   14.7088 O.2     1  UNL1       -0.2668
      4 C          63.1990   87.1097   12.5182 C.ar    1  UNL1        0.0735
      5 C          63.4355   85.7158   13.0191 C.ar    1  UNL1        0.0261
      6 C          63.0461   84.5391   12.1743 C.ar    1  UNL1        0.1222
      7 C          62.4203   84.7564   10.8285 C.ar    1  UNL1        0.0214
      8 C          62.1838   86.1503   10.3275 C.ar    1  UNL1        0.0188
      9 C          62.5732   87.3270   11.1724 C.ar    1  UNL1        0.0685
     10 N          62.3368   88.7210   10.6714 N.ar    1  UNL1       -0.2810
     11 C          62.7262   89.8977   11.5162 C.ar    1  UNL1        0.3340
     12 O          62.4898   91.2917   11.0153 O.2     1  UNL1       -0.2462
     13 S          63.2825   83.1451   12.6753 S.O2    1  UNL1        0.0601
     14 O          64.0469   83.6945   13.8431 O.2     1  UNL1       -0.1530
     15 O          62.5181   82.5957   11.5074 O.2     1  UNL1       -0.1530
     16 N          63.5189   81.7512   13.1762 N.3     1  UNL1       -0.1820
     17 H          64.0740   81.8346   14.0279 H       1  UNL1        0.1487
     18 C          62.3543   80.8642   13.5035 C.3     1  UNL1        0.0622
     19 C          62.6887   79.6723   12.6564 C.3     1  UNL1        0.0175
     20 C          61.0737   80.3911   14.1250 C.3     1  UNL1        0.0175
     21 C          61.6157   81.7481   14.4643 C.3     1  UNL1        0.0175
     22 C          63.7414   90.8572   13.7068 C.3     1  UNL1        0.1434
     23 C          68.7363   92.2590   14.6901 C.3     1  UNL1        0.1537
     24 N          67.4032   92.1055   14.0196 N.ar    1  UNL1       -0.2476
     25 C          66.2239   91.3549   14.5636 C.ar    1  UNL1        0.0943
     26 C          65.1074   91.4611   13.5677 C.ar    1  UNL1        0.0403
     27 C          65.5966   92.2773   12.4081 C.ar    1  UNL1        0.1193
     28 N          67.0155   92.6756   12.6874 N.ar    1  UNL1       -0.1679
     29 C          61.7110   88.9383    9.3256 C.3     1  UNL1        0.1155
     30 C          60.4501   88.2131    8.9590 C.3     1  UNL1        0.0819
     31 C          59.9461   87.5169    7.7297 C.3     1  UNL1        0.1465
     32 O          58.6669   87.1877    8.4406 O.3     1  UNL1       -0.3535
     33 C          59.1709   87.8840    9.6698 C.3     1  UNL1        0.1465
@<TRIPOS>BOND
     1    23    24    1
     2    24    25   ar
     3    25    26   ar
     4    26    22    1
     5    22     1    1
     6     1     2   ar
     7     2     3    2
     8     2     4   ar
     9     4     5   ar
    10     5     6   ar
    11     6    13    1
    12    13    14    2
    13    13    15    2
    14    13    16    1
    15    16    18    1
    16    18    19    1
    17    18    20    1
    18    20    21    1
    19     6     7   ar
    20     7     8   ar
    21     8     9   ar
    22     9    10   ar
    23    10    29    1
    24    29    30    1
    25    30    31    1
    26    31    32    1
    27    32    33    1
    28    10    11   ar
    29    11    12    2
    30    26    27   ar
    31    27    28   ar
    32    28    24   ar
    33    11     1   ar
    34     9     4   ar
    35    33    30    1
    36    21    18    1
    37    16    17    1
@<TRIPOS>MOLECULE
*****
 33 37 0 0 0
SMALL
GASTEIGER

@<TRIPOS>ATOM
      1 N          61.9796   87.1339   10.8617 N.ar    1  UNL1       -0.2444
      2 C          62.4463   88.4882   11.3069 C.ar    1  UNL1        0.2659
      3 O          62.1178   89.7013   10.4880 O.2     1  UNL1       -0.2668
      4 C          63.2415   88.6294   12.5709 C.ar    1  UNL1        0.0735
      5 C          63.7082   89.9836   13.0161 C.ar    1  UNL1        0.0261
      6 C          64.5034   90.1248   14.2801 C.ar    1  UNL1        0.1222
      7 C          64.8319   88.9117   15.0989 C.ar    1  UNL1        0.0214
      8 C          64.3652   87.5574   14.6538 C.ar    1  UNL1        0.0188
      9 C          63.5700   87.4163   13.3898 C.ar    1  UNL1        0.0685
     10 N          63.1033   86.0620   12.9445 N.ar    1  UNL1       -0.2810
     11 C          62.3082   85.9208   11.6806 C.ar    1  UNL1        0.3340
     12 O          61.8414   84.5665   11.2353 O.2     1  UNL1       -0.2462
     13 S          64.9701   91.4791   14.7253 S.O2    1  UNL1        0.0601
     14 O          65.9204   91.5326   13.5661 O.2     1  UNL1       -0.1530
     15 O          64.0197   91.4255   15.8846 O.2     1  UNL1       -0.1530
     16 N          65.4368   92.8333   15.1705 N.3     1  UNL1       -0.1820
     17 H          65.1860   92.9222   16.1551 H       1  UNL1        0.1487
     18 C          66.8866   93.2013   15.0580 C.3     1  UNL1        0.0622
     19 C          66.8216   94.1690   13.9137 C.3     1  UNL1        0.0175
     20 C          68.3590   93.2334   15.3429 C.3     1  UNL1        0.0175
     21 C          67.4550   92.3615   16.1632 C.3     1  UNL1        0.0175
     22 C          61.1844   86.9927    9.5977 C.3     1  UNL1        0.1434
     23 C          61.3308   84.0097    5.2433 C.3     1  UNL1        0.1537
     24 N          61.7367   84.7174    6.5020 N.ar    1  UNL1       -0.2476
     25 C          60.8558   85.5898    7.3463 C.ar    1  UNL1        0.0943
     26 C          61.6695   86.0886    8.5035 C.ar    1  UNL1        0.0403
     27 C          63.0533   85.5245    8.3744 C.ar    1  UNL1        0.1193
     28 N          63.0950   84.6771    7.1374 N.ar    1  UNL1       -0.1679
     29 C          63.4319   84.8489   13.7634 C.3     1  UNL1        0.1155
     30 C          63.9176   83.5991   13.0909 C.3     1  UNL1        0.0819
     31 C          64.7077   83.3001   11.8514 C.3     1  UNL1        0.1465
     32 O          64.6045   81.8317   12.1399 O.3     1  UNL1       -0.3535
     33 C          63.8143   82.1307   13.3793 C.3     1  UNL1        0.1465
@<TRIPOS>BOND
     1    23    24    1
     2    24    25   ar
     3    25    26   ar
     4    26    22    1
     5    22     1    1
     6     1     2   ar
     7     2     3    2
     8     2     4   ar
     9     4     5   ar
    10     5     6   ar
    11     6    13    1
    12    13    14    2
    13    13    15    2
    14    13    16    1
    15    16    18    1
    16    18    19    1
    17    18    20    1
    18    20    21    1
    19     6     7   ar
    20     7     8   ar
    21     8     9   ar
    22     9    10   ar
    23    10    29    1
    24    29    30    1
    25    30    31    1
    26    31    32    1
    27    32    33    1
    28    10    11   ar
    29    11    12    2
    30    26    27   ar
    31    27    28   ar
    32    28    24   ar
    33    11     1   ar
    34     9     4   ar
    35    33    30    1
    36    21    18    1
    37    16    17    1
@<TRIPOS>MOLECULE
*****
 33 37 0 0 0
SMALL
GASTEIGER

@<TRIPOS>ATOM
      1 N          62.2137   87.5154   11.5939 N.ar    1  UNL1       -0.2444
      2 C          62.6412   88.9213   11.2933 C.ar    1  UNL1        0.2659
      3 O          62.1086   89.6240   10.0798 O.2     1  UNL1       -0.2668
      4 C          63.6014   89.6247   12.2062 C.ar    1  UNL1        0.0735
      5 C          64.0290   91.0307   11.9055 C.ar    1  UNL1        0.0261
      6 C          64.9891   91.7340   12.8184 C.ar    1  UNL1        0.1222
      7 C          65.5218   91.0314   14.0319 C.ar    1  UNL1        0.0214
      8 C          65.0942   89.6254   14.3325 C.ar    1  UNL1        0.0188
      9 C          64.1341   88.9221   13.4197 C.ar    1  UNL1        0.0685
     10 N          63.7065   87.5160   13.7203 N.ar    1  UNL1       -0.2810
     11 C          62.7463   86.8127   12.8074 C.ar    1  UNL1        0.3340
     12 O          62.3187   85.4067   13.1080 O.2     1  UNL1       -0.2462
     13 S          65.4167   93.1400   12.5178 S.O2    1  UNL1        0.0601
     14 O          64.7693   93.0483   11.1679 O.2     1  UNL1       -0.1530
     15 O          66.0642   93.2318   13.8677 O.2     1  UNL1       -0.1530
     16 N          65.8443   94.5460   12.2171 N.3     1  UNL1       -0.1820
     17 H          66.5356   94.8007   12.9225 H       1  UNL1        0.1487
     18 C          66.4440   94.8785   10.8830 C.3     1  UNL1        0.0622
     19 C          65.7686   96.1905   10.6137 C.3     1  UNL1        0.0175
     20 C          67.2783   94.7554    9.6425 C.3     1  UNL1        0.0175
     21 C          67.3276   93.6820   10.6892 C.3     1  UNL1        0.0175
     22 C          61.2535   86.8120   10.6810 C.3     1  UNL1        0.1434
     23 C          61.7114   84.5988    5.9090 C.3     1  UNL1        0.1537
     24 N          61.9805   84.9900    7.3319 N.ar    1  UNL1       -0.2476
     25 C          61.1281   85.8918    8.1745 C.ar    1  UNL1        0.0943
     26 C          61.7700   86.0073    9.5253 C.ar    1  UNL1        0.0403
     27 C          63.0191   85.1768    9.5175 C.ar    1  UNL1        0.1193
     28 N          63.1492   84.5481    8.1619 N.ar    1  UNL1       -0.1679
     29 C          64.2391   86.8134   14.9338 C.3     1  UNL1        0.1155
     30 C          63.3577   86.6112   16.1307 C.3     1  UNL1        0.0819
     31 C          62.5746   85.4601   16.6889 C.3     1  UNL1        0.1465
     32 O          62.1113   86.3254   17.8232 O.3     1  UNL1       -0.3535
     33 C          62.8945   87.4765   17.2650 C.3     1  UNL1        0.1465
@<TRIPOS>BOND
     1    23    24    1
     2    24    25   ar
     3    25    26   ar
     4    26    22    1
     5    22     1    1
     6     1     2   ar
     7     2     3    2
     8     2     4   ar
     9     4     5   ar
    10     5     6   ar
    11     6    13    1
    12    13    14    2
    13    13    15    2
    14    13    16    1
    15    16    18    1
    16    18    19    1
    17    18    20    1
    18    20    21    1
    19     6     7   ar
    20     7     8   ar
    21     8     9   ar
    22     9    10   ar
    23    10    29    1
    24    29    30    1
    25    30    31    1
    26    31    32    1
    27    32    33    1
    28    10    11   ar
    29    11    12    2
    30    26    27   ar
    31    27    28   ar
    32    28    24   ar
    33    11     1   ar
    34     9     4   ar
    35    33    30    1
    36    21    18    1
    37    16    17    1
@<TRIPOS>MOLECULE
*****
 33 37 0 0 0
SMALL
GASTEIGER

@<TRIPOS>ATOM
      1 N          63.2843   86.1547   12.1933 N.ar    1  UNL1       -0.2444
      2 C          62.4654   86.2563   10.9407 C.ar    1  UNL1        0.2659
      3 O          62.2837   85.0530   10.0637 O.2     1  UNL1       -0.2668
      4 C          61.8282   87.5613   10.5649 C.ar    1  UNL1        0.0735
      5 C          61.0093   87.6629    9.3123 C.ar    1  UNL1        0.0261
      6 C          60.3722   88.9678    8.9367 C.ar    1  UNL1        0.1222
      7 C          60.5539   90.1712    9.8136 C.ar    1  UNL1        0.0214
      8 C          61.3728   90.0695   11.0662 C.ar    1  UNL1        0.0188
      9 C          62.0100   88.7646   11.4419 C.ar    1  UNL1        0.0685
     10 N          62.8289   88.6629   12.6945 N.ar    1  UNL1       -0.2810
     11 C          63.4660   87.3580   13.0702 C.ar    1  UNL1        0.3340
     12 O          64.2850   87.2563   14.3229 O.2     1  UNL1       -0.2462
     13 S          59.5533   89.0695    7.6840 S.O2    1  UNL1        0.0601
     14 O          59.2494   90.5042    7.9992 O.2     1  UNL1       -0.1530
     15 O          59.8571   87.6349    7.3688 O.2     1  UNL1       -0.1530
     16 N          58.7344   89.1712    6.4314 N.3     1  UNL1       -0.1820
     17 H          57.7587   89.0616    6.7078 H       1  UNL1        0.1487
     18 C          58.8084   90.4076    5.5852 C.3     1  UNL1        0.0622
     19 C          60.2945   90.5162    5.4124 C.3     1  UNL1        0.0175
     20 C          58.3665   91.6062    4.7991 C.3     1  UNL1        0.0175
     21 C          57.3482   90.7282    5.4642 C.3     1  UNL1        0.0175
     22 C          63.9215   84.8497   12.5690 C.3     1  UNL1        0.1434
     23 C          60.9674   80.7681   14.1482 C.3     1  UNL1        0.1537
     24 N          61.8232   81.9999   14.1629 N.ar    1  UNL1       -0.2476
     25 C          62.3924   82.6925   12.9603 C.ar    1  UNL1        0.0943
     26 C          63.1811   83.8760   13.4371 C.ar    1  UNL1        0.0403
     27 C          63.0993   83.9149   14.9344 C.ar    1  UNL1        0.1193
     28 N          62.2601   82.7554   15.3830 N.ar    1  UNL1       -0.1679
     29 C          63.0106   89.8662   13.5715 C.3     1  UNL1        0.1155
     30 C          64.1613   90.7992   13.3357 C.3     1  UNL1        0.0819
     31 C          64.5535   91.7435   12.2381 C.3     1  UNL1        0.1465
     32 O          65.7886   92.1186   13.0023 O.3     1  UNL1       -0.3535
     33 C          65.3964   91.1743   14.0998 C.3     1  UNL1        0.1465
@<TRIPOS>BOND
     1    23    24    1
     2    24    25   ar
     3    25    26   ar
     4    26    22    1
     5    22     1    1
     6     1     2   ar
     7     2     3    2
     8     2     4   ar
     9     4     5   ar
    10     5     6   ar
    11     6    13    1
    12    13    14    2
    13    13    15    2
    14    13    16    1
    15    16    18    1
    16    18    19    1
    17    18    20    1
    18    20    21    1
    19     6     7   ar
    20     7     8   ar
    21     8     9   ar
    22     9    10   ar
    23    10    29    1
    24    29    30    1
    25    30    31    1
    26    31    32    1
    27    32    33    1
    28    10    11   ar
    29    11    12    2
    30    26    27   ar
    31    27    28   ar
    32    28    24   ar
    33    11     1   ar
    34     9     4   ar
    35    33    30    1
    36    21    18    1
    37    16    17    1
@<TRIPOS>MOLECULE
*****
 33 37 0 0 0
SMALL
GASTEIGER

@<TRIPOS>ATOM
      1 N          63.1633   86.0043   12.7269 N.ar    1  UNL1       -0.2444
      2 C          62.2430   86.1079   11.5470 C.ar    1  UNL1        0.2659
      3 O          61.6352   84.8691   10.9587 O.2     1  UNL1       -0.2668
      4 C          61.9304   87.4504   10.9552 C.ar    1  UNL1        0.0735
      5 C          61.0101   87.5541    9.7753 C.ar    1  UNL1        0.0261
      6 C          60.6975   88.8965    9.1837 C.ar    1  UNL1        0.1222
      7 C          61.3053   90.1353    9.7719 C.ar    1  UNL1        0.0214
      8 C          62.2256   90.0317   10.9518 C.ar    1  UNL1        0.0188
      9 C          62.5381   88.6892   11.5435 C.ar    1  UNL1        0.0685
     10 N          63.4585   88.5855   12.7235 N.ar    1  UNL1       -0.2810
     11 C          63.7711   87.2431   13.3151 C.ar    1  UNL1        0.3340
     12 O          64.6914   87.1394   14.4951 O.2     1  UNL1       -0.2462
     13 S          59.7771   89.0002    8.0037 S.O2    1  UNL1        0.0601
     14 O          60.1672   87.6159    7.5779 O.2     1  UNL1       -0.1530
     15 O          59.3871   90.3846    8.4296 O.2     1  UNL1       -0.1530
     16 N          58.8568   89.1039    6.8238 N.3     1  UNL1       -0.1820
     17 H          57.9070   89.1423    7.1937 H       1  UNL1        0.1487
     18 C          58.9942   90.2482    5.8637 C.3     1  UNL1        0.0622
     19 C          57.5494   90.6035    5.6737 C.3     1  UNL1        0.0175
     20 C          59.6333   91.2690    4.9696 C.3     1  UNL1        0.0175
     21 C          60.4867   90.2901    5.7204 C.3     1  UNL1        0.0175
     22 C          63.4759   84.6618   13.3186 C.3     1  UNL1        0.1434
     23 C          62.8005   79.8717   11.2022 C.3     1  UNL1        0.1537
     24 N          63.3049   81.2616   11.4545 N.ar    1  UNL1       -0.2476
     25 C          62.8478   82.1804   12.5486 C.ar    1  UNL1        0.0943
     26 C          63.6154   83.4634   12.4273 C.ar    1  UNL1        0.0403
     27 C          64.5468   83.3376   11.2583 C.ar    1  UNL1        0.1193
     28 N          64.3549   81.9768   10.6571 N.ar    1  UNL1       -0.1679
     29 C          64.0663   89.8243   13.3117 C.3     1  UNL1        0.1155
     30 C          63.7607   90.2094   14.7289 C.3     1  UNL1        0.0819
     31 C          62.9165   89.6324   15.8264 C.3     1  UNL1        0.1465
     32 O          63.3286   90.7541   16.7331 O.3     1  UNL1       -0.3535
     33 C          64.1728   91.3310   15.6356 C.3     1  UNL1        0.1465
@<TRIPOS>BOND
     1    23    24    1
     2    24    25   ar
     3    25    26   ar
     4    26    22    1
     5    22     1    1
     6     1     2   ar
     7     2     3    2
     8     2     4   ar
     9     4     5   ar
    10     5     6   ar
    11     6    13    1
    12    13    14    2
    13    13    15    2
    14    13    16    1
    15    16    18    1
    16    18    19    1
    17    18    20    1
    18    20    21    1
    19     6     7   ar
    20     7     8   ar
    21     8     9   ar
    22     9    10   ar
    23    10    29    1
    24    29    30    1
    25    30    31    1
    26    31    32    1
    27    32    33    1
    28    10    11   ar
    29    11    12    2
    30    26    27   ar
    31    27    28   ar
    32    28    24   ar
    33    11     1   ar
    34     9     4   ar
    35    33    30    1
    36    21    18    1
    37    16    17    1
@<TRIPOS>MOLECULE
*****
 33 37 0 0 0
SMALL
GASTEIGER

@<TRIPOS>ATOM
      1 N          62.6961   86.8582   11.9913 N.ar    1  UNL1       -0.2444
      2 C          62.9730   88.2127   11.4093 C.ar    1  UNL1        0.2659
      3 O          62.4991   88.5456   10.0256 O.2     1  UNL1       -0.2668
      4 C          63.7237   89.2343   12.2111 C.ar    1  UNL1        0.0735
      5 C          64.0006   90.5888   11.6291 C.ar    1  UNL1        0.0261
      6 C          64.7513   91.6103   12.4308 C.ar    1  UNL1        0.1222
      7 C          65.2251   91.2774   13.8145 C.ar    1  UNL1        0.0214
      8 C          64.9483   89.9229   14.3965 C.ar    1  UNL1        0.0188
      9 C          64.1975   88.9014   13.5948 C.ar    1  UNL1        0.0685
     10 N          63.9206   87.5469   14.1767 N.ar    1  UNL1       -0.2810
     11 C          63.1699   86.5253   13.3750 C.ar    1  UNL1        0.3340
     12 O          62.8929   85.1708   13.9570 O.2     1  UNL1       -0.2462
     13 S          65.0283   92.9649   11.8489 S.O2    1  UNL1        0.0601
     14 O          65.7020   93.3752   13.1247 O.2     1  UNL1       -0.1530
     15 O          64.3545   92.5545   10.5731 O.2     1  UNL1       -0.1530
     16 N          65.3052   94.3193   11.2670 N.3     1  UNL1       -0.1820
     17 H          65.5825   94.9217   12.0420 H       1  UNL1        0.1487
     18 C          66.3478   94.4785   10.2003 C.3     1  UNL1        0.0622
     19 C          65.9586   95.8201    9.6540 C.3     1  UNL1        0.0175
     20 C          67.5255   94.1718    9.3235 C.3     1  UNL1        0.0175
     21 C          67.0990   93.1922   10.3764 C.3     1  UNL1        0.0175
     22 C          61.9453   85.8366   11.1895 C.3     1  UNL1        0.1434
     23 C          63.0776   80.7138   11.7852 C.3     1  UNL1        0.1537
     24 N          63.0496   82.1162   11.2537 N.ar    1  UNL1       -0.2476
     25 C          62.2608   83.2587   11.8216 C.ar    1  UNL1        0.0943
     26 C          62.5291   84.4709   10.9799 C.ar    1  UNL1        0.0403
     27 C          63.4837   84.0776    9.8917 C.ar    1  UNL1        0.1193
     28 N          63.8054   82.6223   10.0609 N.ar    1  UNL1       -0.1679
     29 C          64.3944   87.2139   15.5604 C.3     1  UNL1        0.1155
     30 C          63.4007   86.8801   16.6334 C.3     1  UNL1        0.0819
     31 C          62.6696   85.6395   17.0533 C.3     1  UNL1        0.1465
     32 O          61.9955   86.4082   18.1508 O.3     1  UNL1       -0.3535
     33 C          62.7266   87.6488   17.7310 C.3     1  UNL1        0.1465
@<TRIPOS>BOND
     1    23    24    1
     2    24    25   ar
     3    25    26   ar
     4    26    22    1
     5    22     1    1
     6     1     2   ar
     7     2     3    2
     8     2     4   ar
     9     4     5   ar
    10     5     6   ar
    11     6    13    1
    12    13    14    2
    13    13    15    2
    14    13    16    1
    15    16    18    1
    16    18    19    1
    17    18    20    1
    18    20    21    1
    19     6     7   ar
    20     7     8   ar
    21     8     9   ar
    22     9    10   ar
    23    10    29    1
    24    29    30    1
    25    30    31    1
    26    31    32    1
    27    32    33    1
    28    10    11   ar
    29    11    12    2
    30    26    27   ar
    31    27    28   ar
    32    28    24   ar
    33    11     1   ar
    34     9     4   ar
    35    33    30    1
    36    21    18    1
    37    16    17    1
@<TRIPOS>MOLECULE
*****
 33 37 0 0 0
SMALL
GASTEIGER

@<TRIPOS>ATOM
      1 N          62.2941   85.8160   10.5184 N.ar    1  UNL1       -0.2444
      2 C          62.5394   87.2076   11.0214 C.ar    1  UNL1        0.2659
      3 O          62.0891   88.3878   10.2125 O.2     1  UNL1       -0.2668
      4 C          63.2350   87.4191   12.3335 C.ar    1  UNL1        0.0735
      5 C          63.4803   88.8108   12.8366 C.ar    1  UNL1        0.0261
      6 C          64.1758   89.0222   14.1486 C.ar    1  UNL1        0.1222
      7 C          64.6261   87.8421   14.9575 C.ar    1  UNL1        0.0214
      8 C          64.3808   86.4504   14.4545 C.ar    1  UNL1        0.0188
      9 C          63.6853   86.2390   13.1425 C.ar    1  UNL1        0.0685
     10 N          63.4399   84.8473   12.6394 N.ar    1  UNL1       -0.2810
     11 C          62.7444   84.6358   11.3273 C.ar    1  UNL1        0.3340
     12 O          62.4990   83.2441   10.8242 O.2     1  UNL1       -0.2462
     13 S          64.4212   90.4140   14.6517 S.O2    1  UNL1        0.0601
     14 O          62.9674   90.7357   14.4704 O.2     1  UNL1       -0.1530
     15 O          65.8749   90.0922   14.8330 O.2     1  UNL1       -0.1530
     16 N          64.6664   91.8056   15.1548 N.3     1  UNL1       -0.1820
     17 H          64.6908   91.7506   16.1730 H       1  UNL1        0.1487
     18 C          65.8982   92.5499   14.7317 C.3     1  UNL1        0.0622
     19 C          65.6947   92.5667   13.2457 C.3     1  UNL1        0.0175
     20 C          67.2005   93.2883   14.8247 C.3     1  UNL1        0.0175
     21 C          66.5293   92.7914   16.0708 C.3     1  UNL1        0.0175
     22 C          61.5985   85.6045    9.2063 C.3     1  UNL1        0.1434
     23 C          59.2841   89.4485    6.4229 C.3     1  UNL1        0.1537
     24 N          59.5308   88.3739    7.4400 N.ar    1  UNL1       -0.2476
     25 C          60.7827   87.5589    7.5755 C.ar    1  UNL1        0.0943
     26 C          60.5947   86.6070    8.7194 C.ar    1  UNL1        0.0403
     27 C          59.2265   86.8339    9.2910 C.ar    1  UNL1        0.1193
     28 N          58.5690   87.9258    8.5003 N.ar    1  UNL1       -0.1679
     29 C          63.8902   83.6671   13.4483 C.3     1  UNL1        0.1155
     30 C          62.9264   82.5613   13.7622 C.3     1  UNL1        0.0819
     31 C          61.6368   82.4620   14.5218 C.3     1  UNL1        0.1465
     32 O          61.5636   80.9974   14.2060 O.3     1  UNL1       -0.3535
     33 C          62.8532   81.0967   13.4464 C.3     1  UNL1        0.1465
@<TRIPOS>BOND
     1    23    24    1
     2    24    25   ar
     3    25    26   ar
     4    26    22    1
     5    22     1    1
     6     1     2   ar
     7     2     3    2
     8     2     4   ar
     9     4     5   ar
    10     5     6   ar
    11     6    13    1
    12    13    14    2
    13    13    15    2
    14    13    16    1
    15    16    18    1
    16    18    19    1
    17    18    20    1
    18    20    21    1
    19     6     7   ar
    20     7     8   ar
    21     8     9   ar
    22     9    10   ar
    23    10    29    1
    24    29    30    1
    25    30    31    1
    26    31    32    1
    27    32    33    1
    28    10    11   ar
    29    11    12    2
    30    26    27   ar
    31    27    28   ar
    32    28    24   ar
    33    11     1   ar
    34     9     4   ar
    35    33    30    1
    36    21    18    1
    37    16    17    1
