@<TRIPOS>MOLECULE
*****
 29 32 0 0 0
SMALL
GASTEIGER

@<TRIPOS>ATOM
      1 C          66.7074   92.7384   12.1674 C.2     1  UNL1        0.2440
      2 O          67.3869   93.0994   13.4550 O.2     1  UNL1       -0.2731
      3 N          65.4131   91.9805   12.1893 N.am    1  UNL1       -0.2781
      4 C          64.7984   91.5836   13.4987 C.3     1  UNL1        0.0951
      5 C          63.5041   90.8257   13.5206 C.3     1  UNL1        0.0410
      6 C          62.8245   90.4647   12.2330 C.3     1  UNL1        0.0722
      7 C          63.4393   90.8616   10.9236 C.3     1  UNL1        0.0410
      8 C          64.7335   91.6195   10.9017 C.3     1  UNL1        0.0951
      9 N          68.4048   92.2926   10.2517 N.3     1  UNL1       -0.3116
     10 C          67.3220   93.1352   10.8580 C.3     1  UNL1        0.1514
     11 H          68.5960   91.4959   10.8592 H       1  UNL1        0.1195
     12 H          69.2518   92.8512   10.1468 H       1  UNL1        0.1195
     13 C          66.8539   94.3747   10.1548 C.ar    1  UNL1        0.0005
     14 C          65.7501   95.2008   10.7457 C.ar    1  UNL1       -0.0025
     15 C          65.2821   96.4403   10.0424 C.ar    1  UNL1       -0.0003
     16 C          65.9178   96.8538    8.7483 C.ar    1  UNL1       -0.0000
     17 C          67.0216   96.0278    8.1573 C.ar    1  UNL1       -0.0003
     18 C          67.4897   94.7882    8.8606 C.ar    1  UNL1       -0.0025
     19 N          61.5303   89.7068   12.2549 N.pl3   1  UNL1       -0.3369
     20 H          60.8736   89.8746   12.9690 H       1  UNL1        0.1465
     21 C          61.2365   88.6933   11.1888 C.2     1  UNL1        0.0262
     22 C          61.9002   87.3488   11.2288 C.2     1  UNL1        0.0118
     23 C          61.6065   86.3353   10.1626 C.2     1  UNL1        0.0216
     24 C          60.6490   86.6665    9.0565 C.2     1  UNL1        0.1008
     25 N          60.1671   85.8763    7.8761 N.2     1  UNL1       -0.1482
     26 N          59.2055   86.7326    7.1066 N.2     1  UNL1       -0.1467
     27 C          59.0931   88.0519    7.8114 C.2     1  UNL1        0.1198
     28 C          59.9853   88.0110    9.0165 C.2     1  UNL1        0.0238
     29 C          60.2790   89.0245   10.0826 C.3     1  UNL1        0.0703
@<TRIPOS>BOND
     1    10     9    1
     2    10     1    1
     3     1     2    2
     4     1     3   am
     5     3     4    1
     6     4     5    1
     7     5     6    1
     8     6    19    1
     9    19    21    1
    10    21    22    2
    11    22    23    1
    12    23    24    2
    13    24    25    1
    14    25    26    2
    15    26    27    1
    16    27    28    2
    17    28    29    1
    18     6     7    1
    19     7     8    1
    20    10    13    1
    21    13    14   ar
    22    14    15   ar
    23    15    16   ar
    24    16    17   ar
    25    17    18   ar
    26     8     3    1
    27    18    13   ar
    28    29    21    1
    29    28    24    1
    30     9    11    1
    31     9    12    1
    32    19    20    1
@<TRIPOS>MOLECULE
*****
 29 32 0 0 0
SMALL
GASTEIGER

@<TRIPOS>ATOM
      1 C          66.0416   92.0428   13.2217 C.2     1  UNL1        0.2440
      2 O          66.9968   91.5617   14.2734 O.2     1  UNL1       -0.2731
      3 N          64.8101   91.2466   12.9063 N.am    1  UNL1       -0.2781
      4 C          64.5337   89.9694   13.6427 C.3     1  UNL1        0.0951
      5 C          63.3021   89.1733   13.3273 C.3     1  UNL1        0.0410
      6 C          62.3469   89.6544   12.2756 C.3     1  UNL1        0.0722
      7 C          62.6234   90.9317   11.5392 C.3     1  UNL1        0.0410
      8 C          63.8549   91.7278   11.8545 C.3     1  UNL1        0.0951
      9 N          65.9191   94.6345   13.0878 N.3     1  UNL1       -0.3116
     10 C          66.3180   93.3200   12.4853 C.3     1  UNL1        0.1514
     11 H          65.4765   94.4735   13.9925 H       1  UNL1        0.1195
     12 H          65.2622   95.1076   12.4673 H       1  UNL1        0.1195
     13 C          66.9932   93.2828   11.1464 C.ar    1  UNL1        0.0005
     14 C          66.9053   94.4662   10.2288 C.ar    1  UNL1       -0.0025
     15 C          67.5805   94.4288    8.8899 C.ar    1  UNL1       -0.0003
     16 C          68.3437   93.2082    8.4686 C.ar    1  UNL1       -0.0000
     17 C          68.4316   92.0248    9.3861 C.ar    1  UNL1       -0.0003
     18 C          67.7564   92.0621   10.7250 C.ar    1  UNL1       -0.0025
     19 N          61.1154   88.8582   11.9602 N.pl3   1  UNL1       -0.3369
     20 H          60.3414   88.8874   12.5679 H       1  UNL1        0.1465
     21 C          61.0632   88.0177   10.7189 C.2     1  UNL1        0.0262
     22 C          59.8528   88.0610    9.8341 C.2     1  UNL1        0.0118
     23 C          59.8006   87.2205    8.5927 C.2     1  UNL1        0.0216
     24 C          60.9589   86.3366    8.2363 C.2     1  UNL1        0.1008
     25 N          61.1923   85.4031    7.0856 N.2     1  UNL1       -0.1482
     26 N          62.5469   84.7828    7.2593 N.2     1  UNL1       -0.1467
     27 C          63.1508   85.3330    8.5174 C.2     1  UNL1        0.1198
     28 C          62.1694   86.2932    9.1212 C.2     1  UNL1        0.0238
     29 C          62.2215   87.1338   10.3625 C.3     1  UNL1        0.0703
@<TRIPOS>BOND
     1    10     9    1
     2    10     1    1
     3     1     2    2
     4     1     3   am
     5     3     4    1
     6     4     5    1
     7     5     6    1
     8     6    19    1
     9    19    21    1
    10    21    22    2
    11    22    23    1
    12    23    24    2
    13    24    25    1
    14    25    26    2
    15    26    27    1
    16    27    28    2
    17    28    29    1
    18     6     7    1
    19     7     8    1
    20    10    13    1
    21    13    14   ar
    22    14    15   ar
    23    15    16   ar
    24    16    17   ar
    25    17    18   ar
    26     8     3    1
    27    18    13   ar
    28    29    21    1
    29    28    24    1
    30     9    11    1
    31     9    12    1
    32    19    20    1
@<TRIPOS>MOLECULE
*****
 29 32 0 0 0
SMALL
GASTEIGER

@<TRIPOS>ATOM
      1 C          65.8650   92.5985   13.1897 C.2     1  UNL1        0.2440
      2 O          66.5478   92.4916   14.5210 O.2     1  UNL1       -0.2731
      3 N          64.8509   91.5710   12.7823 N.am    1  UNL1       -0.2781
      4 C          64.5197   90.4368   13.7062 C.3     1  UNL1        0.0951
      5 C          63.5056   89.4092   13.2988 C.3     1  UNL1        0.0410
      6 C          62.8227   89.5160   11.9675 C.3     1  UNL1        0.0722
      7 C          63.1541   90.6504   11.0436 C.3     1  UNL1        0.0410
      8 C          64.1681   91.6779   11.4510 C.3     1  UNL1        0.0951
      9 N          65.7721   95.1295   12.6108 N.3     1  UNL1       -0.3116
     10 C          66.1963   93.7328   12.2657 C.3     1  UNL1        0.1514
     11 H          65.2738   95.1235   13.5008 H       1  UNL1        0.1195
     12 H          65.1582   95.4889   11.8798 H       1  UNL1        0.1195
     13 C          66.9516   93.4703   10.9967 C.ar    1  UNL1        0.0005
     14 C          67.7015   92.1828   10.8227 C.ar    1  UNL1       -0.0025
     15 C          68.4569   91.9204    9.5537 C.ar    1  UNL1       -0.0003
     16 C          68.4624   92.9454    8.4585 C.ar    1  UNL1       -0.0000
     17 C          67.7125   94.2328    8.6324 C.ar    1  UNL1       -0.0003
     18 C          66.9572   94.4952    9.9015 C.ar    1  UNL1       -0.0025
     19 N          61.8087   88.4886   11.5602 N.pl3   1  UNL1       -0.3369
     20 H          60.8478   88.6942   11.6207 H       1  UNL1        0.1465
     21 C          62.2587   87.1476   11.0606 C.2     1  UNL1        0.0262
     22 C          62.3127   86.8760    9.5865 C.2     1  UNL1        0.0118
     23 C          62.7627   85.5351    9.0869 C.2     1  UNL1        0.0216
     24 C          63.1587   84.4659   10.0616 C.2     1  UNL1        0.1008
     25 N          63.6400   83.0586    9.8669 N.2     1  UNL1       -0.1482
     26 N          63.8833   82.4605   11.2208 N.2     1  UNL1       -0.1467
     27 C          63.5526   83.4982   12.2522 C.2     1  UNL1        0.1198
     28 C          63.1047   84.7376   11.5358 C.2     1  UNL1        0.0238
     29 C          62.6547   86.0785   12.0353 C.3     1  UNL1        0.0703
@<TRIPOS>BOND
     1    10     9    1
     2    10     1    1
     3     1     2    2
     4     1     3   am
     5     3     4    1
     6     4     5    1
     7     5     6    1
     8     6    19    1
     9    19    21    1
    10    21    22    2
    11    22    23    1
    12    23    24    2
    13    24    25    1
    14    25    26    2
    15    26    27    1
    16    27    28    2
    17    28    29    1
    18     6     7    1
    19     7     8    1
    20    10    13    1
    21    13    14   ar
    22    14    15   ar
    23    15    16   ar
    24    16    17   ar
    25    17    18   ar
    26     8     3    1
    27    18    13   ar
    28    29    21    1
    29    28    24    1
    30     9    11    1
    31     9    12    1
    32    19    20    1
@<TRIPOS>MOLECULE
*****
 29 32 0 0 0
SMALL
GASTEIGER

@<TRIPOS>ATOM
      1 C          61.8422   87.5743   11.2194 C.2     1  UNL1        0.2440
      2 O          61.8407   86.3985   12.1508 O.2     1  UNL1       -0.2731
      3 N          62.6580   88.7897   11.5472 N.am    1  UNL1       -0.2781
      4 C          63.4722   88.8292   12.8063 C.3     1  UNL1        0.0951
      5 C          64.2880   90.0447   13.1341 C.3     1  UNL1        0.0410
      6 C          64.2895   91.2205   12.2027 C.3     1  UNL1        0.0722
      7 C          63.4753   91.1809   10.9436 C.3     1  UNL1        0.0410
      8 C          62.6595   89.9655   10.6158 C.3     1  UNL1        0.0951
      9 N          59.8666   88.4684    9.7885 N.3     1  UNL1       -0.3116
     10 C          61.0280   87.5348    9.9603 C.3     1  UNL1        0.1514
     11 H          59.7762   89.0548   10.6182 H       1  UNL1        0.1195
     12 H          59.0116   87.9273    9.6598 H       1  UNL1        0.1195
     13 C          61.3753   86.5617    8.8728 C.ar    1  UNL1        0.0005
     14 C          62.7313   85.9211    8.8444 C.ar    1  UNL1       -0.0025
     15 C          63.0785   84.9480    7.7570 C.ar    1  UNL1       -0.0003
     16 C          62.0696   84.6155    6.6979 C.ar    1  UNL1       -0.0000
     17 C          60.7136   85.2560    6.7263 C.ar    1  UNL1       -0.0003
     18 C          60.3664   86.2292    7.8138 C.ar    1  UNL1       -0.0025
     19 N          65.1053   92.4358   12.5305 N.pl3   1  UNL1       -0.3369
     20 H          65.1432   92.7682   13.4564 H       1  UNL1        0.1465
     21 C          65.8633   93.1447   11.4475 C.2     1  UNL1        0.0262
     22 C          66.8811   92.4012   10.6344 C.2     1  UNL1        0.0118
     23 C          67.6391   93.1101    9.5514 C.2     1  UNL1        0.0216
     24 C          67.3793   94.5626    9.2815 C.2     1  UNL1        0.1008
     25 N          67.9673   95.5196    8.2874 N.2     1  UNL1       -0.1482
     26 N          67.3129   96.8546    8.4861 N.2     1  UNL1       -0.1467
     27 C          66.3204   96.7227    9.6030 C.2     1  UNL1        0.1198
     28 C          66.3614   95.3061   10.0946 C.2     1  UNL1        0.0238
     29 C          65.6034   94.5972   11.1776 C.3     1  UNL1        0.0703
@<TRIPOS>BOND
     1    10     9    1
     2    10     1    1
     3     1     2    2
     4     1     3   am
     5     3     4    1
     6     4     5    1
     7     5     6    1
     8     6    19    1
     9    19    21    1
    10    21    22    2
    11    22    23    1
    12    23    24    2
    13    24    25    1
    14    25    26    2
    15    26    27    1
    16    27    28    2
    17    28    29    1
    18     6     7    1
    19     7     8    1
    20    10    13    1
    21    13    14   ar
    22    14    15   ar
    23    15    16   ar
    24    16    17   ar
    25    17    18   ar
    26     8     3    1
    27    18    13   ar
    28    29    21    1
    29    28    24    1
    30     9    11    1
    31     9    12    1
    32    19    20    1
@<TRIPOS>MOLECULE
*****
 29 32 0 0 0
SMALL
GASTEIGER

@<TRIPOS>ATOM
      1 C          63.7668   84.7847   15.5612 C.2     1  UNL1        0.2440
      2 O          62.9509   83.9917   16.5386 O.2     1  UNL1       -0.2731
      3 N          63.7543   86.2837   15.6160 N.am    1  UNL1       -0.2781
      4 C          62.9260   86.9895   16.6482 C.3     1  UNL1        0.0951
      5 C          62.9135   88.4886   16.7030 C.3     1  UNL1        0.0410
      6 C          63.7295   89.2816   15.7256 C.3     1  UNL1        0.0722
      7 C          64.5579   88.5756   14.6934 C.3     1  UNL1        0.0410
      8 C          64.5703   87.0767   14.6386 C.3     1  UNL1        0.0951
      9 N          66.0755   84.3129   14.4671 N.3     1  UNL1       -0.3116
     10 C          64.5952   84.0788   14.5290 C.3     1  UNL1        0.1514
     11 H          66.3458   84.9752   15.1942 H       1  UNL1        0.1195
     12 H          66.3218   84.6925   13.5529 H       1  UNL1        0.1195
     13 C          63.9433   83.1388   13.5588 C.ar    1  UNL1        0.0005
     14 C          63.1095   81.9988   14.0639 C.ar    1  UNL1       -0.0025
     15 C          62.4576   81.0588   13.0936 C.ar    1  UNL1       -0.0003
     16 C          62.6395   81.2588   11.6181 C.ar    1  UNL1       -0.0000
     17 C          63.4733   82.3988   11.1130 C.ar    1  UNL1       -0.0003
     18 C          64.1252   83.3388   12.0833 C.ar    1  UNL1       -0.0025
     19 N          63.7170   90.7805   15.7804 N.pl3   1  UNL1       -0.3369
     20 H          63.1468   91.2445   16.4353 H       1  UNL1        0.1465
     21 C          64.5733   91.5726   14.8373 C.2     1  UNL1        0.0262
     22 C          65.7018   92.4057   15.3686 C.2     1  UNL1        0.0118
     23 C          66.5581   93.1978   14.4255 C.2     1  UNL1        0.0216
     24 C          66.2858   93.1567   12.9510 C.2     1  UNL1        0.1008
     25 N          66.9553   93.8265   11.7877 N.2     1  UNL1       -0.1482
     26 N          66.2405   93.4073   10.5374 N.2     1  UNL1       -0.1467
     27 C          65.1293   92.4784   10.9279 C.2     1  UNL1        0.1198
     28 C          65.1574   92.3235   12.4196 C.2     1  UNL1        0.0238
     29 C          64.3011   91.5315   13.3628 C.3     1  UNL1        0.0703
@<TRIPOS>BOND
     1    10     9    1
     2    10     1    1
     3     1     2    2
     4     1     3   am
     5     3     4    1
     6     4     5    1
     7     5     6    1
     8     6    19    1
     9    19    21    1
    10    21    22    2
    11    22    23    1
    12    23    24    2
    13    24    25    1
    14    25    26    2
    15    26    27    1
    16    27    28    2
    17    28    29    1
    18     6     7    1
    19     7     8    1
    20    10    13    1
    21    13    14   ar
    22    14    15   ar
    23    15    16   ar
    24    16    17   ar
    25    17    18   ar
    26     8     3    1
    27    18    13   ar
    28    29    21    1
    29    28    24    1
    30     9    11    1
    31     9    12    1
    32    19    20    1
@<TRIPOS>MOLECULE
*****
 29 32 0 0 0
SMALL
GASTEIGER

@<TRIPOS>ATOM
      1 C          64.2872   91.0186   13.9194 C.2     1  UNL1        0.2440
      2 O          65.5825   91.7046   13.6007 O.2     1  UNL1       -0.2731
      3 N          63.2980   90.7390   12.8270 N.am    1  UNL1       -0.2781
      4 C          63.6041   91.1454   11.4160 C.3     1  UNL1        0.0951
      5 C          62.6148   90.8657   10.3235 C.3     1  UNL1        0.0410
      6 C          61.3195   90.1797   10.6422 C.3     1  UNL1        0.0722
      7 C          61.0135   89.7733   12.0534 C.3     1  UNL1        0.0410
      8 C          62.0027   90.0530   13.1457 C.3     1  UNL1        0.0951
      9 N          63.8211   91.6577   16.3941 N.3     1  UNL1       -0.3116
     10 C          63.9811   90.6122   15.3304 C.3     1  UNL1        0.1514
     11 H          63.9522   92.5825   15.9843 H       1  UNL1        0.1195
     12 H          64.5164   91.5081   17.1252 H       1  UNL1        0.1195
     13 C          63.8349   89.1604   15.6779 C.ar    1  UNL1        0.0005
     14 C          64.4544   88.1131   14.8006 C.ar    1  UNL1       -0.0025
     15 C          64.3082   86.6613   15.1481 C.ar    1  UNL1       -0.0003
     16 C          63.5426   86.2566   16.3728 C.ar    1  UNL1       -0.0000
     17 C          62.9231   87.3038   17.2501 C.ar    1  UNL1       -0.0003
     18 C          63.0693   88.7557   16.9026 C.ar    1  UNL1       -0.0025
     19 N          60.3304   89.9001    9.5498 N.pl3   1  UNL1       -0.3369
     20 H          59.6486   90.5719    9.3193 H       1  UNL1        0.1465
     21 C          60.3799   88.5968    8.8087 C.2     1  UNL1        0.0262
     22 C          59.2340   88.1891    7.9311 C.2     1  UNL1        0.0118
     23 C          59.2836   86.8858    7.1900 C.2     1  UNL1        0.0216
     24 C          60.4792   85.9904    7.3267 C.2     1  UNL1        0.1008
     25 N          60.8089   84.6571    6.7236 N.2     1  UNL1       -0.1482
     26 N          62.1586   84.2409    7.2286 N.2     1  UNL1       -0.1467
     27 C          62.6631   85.3170    8.1438 C.2     1  UNL1        0.1198
     28 C          61.6252   86.3982    8.2044 C.2     1  UNL1        0.0238
     29 C          61.5756   87.7014    8.9454 C.3     1  UNL1        0.0703
@<TRIPOS>BOND
     1    10     9    1
     2    10     1    1
     3     1     2    2
     4     1     3   am
     5     3     4    1
     6     4     5    1
     7     5     6    1
     8     6    19    1
     9    19    21    1
    10    21    22    2
    11    22    23    1
    12    23    24    2
    13    24    25    1
    14    25    26    2
    15    26    27    1
    16    27    28    2
    17    28    29    1
    18     6     7    1
    19     7     8    1
    20    10    13    1
    21    13    14   ar
    22    14    15   ar
    23    15    16   ar
    24    16    17   ar
    25    17    18   ar
    26     8     3    1
    27    18    13   ar
    28    29    21    1
    29    28    24    1
    30     9    11    1
    31     9    12    1
    32    19    20    1
@<TRIPOS>MOLECULE
*****
 29 32 0 0 0
SMALL
GASTEIGER

@<TRIPOS>ATOM
      1 C          61.3578   87.3579   10.8798 C.2     1  UNL1        0.2440
      2 O          61.3343   86.3173   11.9599 O.2     1  UNL1       -0.2731
      3 N          62.1236   88.6317   11.0821 N.am    1  UNL1       -0.2781
      4 C          62.8658   88.8650   12.3645 C.3     1  UNL1        0.0951
      5 C          63.6316   90.1389   12.5668 C.3     1  UNL1        0.0410
      6 C          63.6551   91.1795   11.4867 C.3     1  UNL1        0.0722
      7 C          62.9128   90.9461   10.2042 C.3     1  UNL1        0.0410
      8 C          62.1470   89.6723   10.0019 C.3     1  UNL1        0.0951
      9 N          59.2986   87.8019    9.3592 N.3     1  UNL1       -0.3116
     10 C          60.6156   87.1246    9.5974 C.3     1  UNL1        0.1514
     11 H          59.0620   88.3788   10.1664 H       1  UNL1        0.1195
     12 H          58.5740   87.0974    9.2208 H       1  UNL1        0.1195
     13 C          61.1903   86.2140    8.5531 C.ar    1  UNL1        0.0005
     14 C          60.3305   85.7328    7.4221 C.ar    1  UNL1       -0.0025
     15 C          60.9053   84.8222    6.3779 C.ar    1  UNL1       -0.0003
     16 C          62.3399   84.3927    6.4646 C.ar    1  UNL1       -0.0000
     17 C          63.1998   84.8739    7.5957 C.ar    1  UNL1       -0.0003
     18 C          62.6249   85.7845    8.6399 C.ar    1  UNL1       -0.0025
     19 N          64.4208   92.4533   11.6890 N.pl3   1  UNL1       -0.3369
     20 H          64.0667   93.3018   11.3370 H       1  UNL1        0.1465
     21 C          65.7262   92.4343   12.4278 C.2     1  UNL1        0.0262
     22 C          66.9977   92.1224   11.6958 C.2     1  UNL1        0.0118
     23 C          68.3031   92.1034   12.4346 C.2     1  UNL1        0.0216
     24 C          68.3368   92.3964   13.9053 C.2     1  UNL1        0.1008
     25 N          69.4651   92.4505   14.8923 N.2     1  UNL1       -0.1482
     26 N          68.8907   92.7958   16.2343 N.2     1  UNL1       -0.1467
     27 C          67.4076   92.9552   16.0766 C.2     1  UNL1        0.1198
     28 C          67.0652   92.7083   14.6372 C.2     1  UNL1        0.0238
     29 C          65.7599   92.7273   13.8985 C.3     1  UNL1        0.0703
@<TRIPOS>BOND
     1    10     9    1
     2    10     1    1
     3     1     2    2
     4     1     3   am
     5     3     4    1
     6     4     5    1
     7     5     6    1
     8     6    19    1
     9    19    21    1
    10    21    22    2
    11    22    23    1
    12    23    24    2
    13    24    25    1
    14    25    26    2
    15    26    27    1
    16    27    28    2
    17    28    29    1
    18     6     7    1
    19     7     8    1
    20    10    13    1
    21    13    14   ar
    22    14    15   ar
    23    15    16   ar
    24    16    17   ar
    25    17    18   ar
    26     8     3    1
    27    18    13   ar
    28    29    21    1
    29    28    24    1
    30     9    11    1
    31     9    12    1
    32    19    20    1
@<TRIPOS>MOLECULE
*****
 29 32 0 0 0
SMALL
GASTEIGER

@<TRIPOS>ATOM
      1 C          63.0269   85.0288   11.9957 C.2     1  UNL1        0.2440
      2 O          62.2781   84.6002   10.7687 O.2     1  UNL1       -0.2731
      3 N          63.1346   86.4852   12.3380 N.am    1  UNL1       -0.2781
      4 C          62.4936   87.5130   11.4534 C.3     1  UNL1        0.0951
      5 C          62.6013   88.9695   11.7958 C.3     1  UNL1        0.0410
      6 C          63.3501   89.3981   13.0228 C.3     1  UNL1        0.0722
      7 C          63.9911   88.3702   13.9075 C.3     1  UNL1        0.0410
      8 C          63.8834   86.9138   13.5651 C.3     1  UNL1        0.0951
      9 N          64.9684   84.3053   13.5632 N.3     1  UNL1       -0.3116
     10 C          63.6680   84.0010   12.8804 C.3     1  UNL1        0.1514
     11 H          65.2699   85.2478   13.3158 H       1  UNL1        0.1195
     12 H          65.6748   83.6329   13.2644 H       1  UNL1        0.1195
     13 C          63.0086   82.6689   13.0822 C.ar    1  UNL1        0.0005
     14 C          62.0055   82.4875   14.1827 C.ar    1  UNL1       -0.0025
     15 C          61.3462   81.1554   14.3844 C.ar    1  UNL1       -0.0003
     16 C          61.6900   80.0046   13.4858 C.ar    1  UNL1       -0.0000
     17 C          62.6931   80.1859   12.3854 C.ar    1  UNL1       -0.0003
     18 C          63.3524   81.5181   12.1836 C.ar    1  UNL1       -0.0025
     19 N          63.4578   90.8545   13.3652 N.pl3   1  UNL1       -0.3369
     20 H          62.6445   91.4047   13.4373 H       1  UNL1        0.1465
     21 C          64.8046   91.4727   13.5976 C.2     1  UNL1        0.0262
     22 C          65.5736   92.0500   12.4465 C.2     1  UNL1        0.0118
     23 C          66.9205   92.6682   12.6790 C.2     1  UNL1        0.0216
     24 C          67.4982   92.7089   14.0627 C.2     1  UNL1        0.1008
     25 N          68.7926   93.2491   14.5944 N.2     1  UNL1       -0.1482
     26 N          68.8235   93.0055   16.0741 N.2     1  UNL1       -0.1467
     27 C          67.5482   92.3148   16.4570 C.2     1  UNL1        0.1198
     28 C          66.7291   92.1315   15.2138 C.2     1  UNL1        0.0238
     29 C          65.3823   91.5134   14.9813 C.3     1  UNL1        0.0703
@<TRIPOS>BOND
     1    10     9    1
     2    10     1    1
     3     1     2    2
     4     1     3   am
     5     3     4    1
     6     4     5    1
     7     5     6    1
     8     6    19    1
     9    19    21    1
    10    21    22    2
    11    22    23    1
    12    23    24    2
    13    24    25    1
    14    25    26    2
    15    26    27    1
    16    27    28    2
    17    28    29    1
    18     6     7    1
    19     7     8    1
    20    10    13    1
    21    13    14   ar
    22    14    15   ar
    23    15    16   ar
    24    16    17   ar
    25    17    18   ar
    26     8     3    1
    27    18    13   ar
    28    29    21    1
    29    28    24    1
    30     9    11    1
    31     9    12    1
    32    19    20    1
@<TRIPOS>MOLECULE
*****
 29 32 0 0 0
SMALL
GASTEIGER

@<TRIPOS>ATOM
      1 C          64.6643   92.0252   12.7093 C.2     1  UNL1        0.2440
      2 O          65.0246   93.2416   11.9088 O.2     1  UNL1       -0.2731
      3 N          63.9076   90.9012   12.0660 N.am    1  UNL1       -0.2781
      4 C          63.5110   90.9935   10.6224 C.3     1  UNL1        0.0951
      5 C          62.7542   89.8694    9.9791 C.3     1  UNL1        0.0410
      6 C          62.3940   88.6530   10.7795 C.3     1  UNL1        0.0722
      7 C          62.7906   88.5608   12.2233 C.3     1  UNL1        0.0410
      8 C          63.5473   89.6848   12.8665 C.3     1  UNL1        0.0951
      9 N          64.0362   91.5842   15.1914 N.3     1  UNL1       -0.3116
     10 C          65.0609   91.9329   14.1529 C.3     1  UNL1        0.1514
     11 H          63.1311   91.4444   14.7424 H       1  UNL1        0.1195
     12 H          63.9662   92.3438   15.8685 H       1  UNL1        0.1195
     13 C          66.4822   92.1893   14.5582 C.ar    1  UNL1        0.0005
     14 C          67.6011   91.8729   13.6106 C.ar    1  UNL1       -0.0025
     15 C          69.0223   92.1294   14.0159 C.ar    1  UNL1       -0.0003
     16 C          69.3247   92.7022   15.3688 C.ar    1  UNL1       -0.0000
     17 C          68.2059   93.0186   16.3165 C.ar    1  UNL1       -0.0003
     18 C          66.7846   92.7621   15.9111 C.ar    1  UNL1       -0.0025
     19 N          61.6372   87.5290   10.1363 N.pl3   1  UNL1       -0.3369
     20 H          60.7641   87.7009    9.7151 H       1  UNL1        0.1465
     21 C          62.2107   86.1429   10.1348 C.2     1  UNL1        0.0262
     22 C          62.8840   85.6111    8.9045 C.2     1  UNL1        0.0118
     23 C          63.4575   84.2250    8.9030 C.2     1  UNL1        0.0216
     24 C          63.3577   83.3708   10.1319 C.2     1  UNL1        0.1008
     25 N          63.8259   81.9764   10.4257 N.2     1  UNL1       -0.1482
     26 N          63.4419   81.6464   11.8377 N.2     1  UNL1       -0.1467
     27 C          62.7365   82.8369   12.4166 C.2     1  UNL1        0.1198
     28 C          62.6844   83.9027   11.3623 C.2     1  UNL1        0.0238
     29 C          62.1109   85.2887   11.3638 C.3     1  UNL1        0.0703
@<TRIPOS>BOND
     1    10     9    1
     2    10     1    1
     3     1     2    2
     4     1     3   am
     5     3     4    1
     6     4     5    1
     7     5     6    1
     8     6    19    1
     9    19    21    1
    10    21    22    2
    11    22    23    1
    12    23    24    2
    13    24    25    1
    14    25    26    2
    15    26    27    1
    16    27    28    2
    17    28    29    1
    18     6     7    1
    19     7     8    1
    20    10    13    1
    21    13    14   ar
    22    14    15   ar
    23    15    16   ar
    24    16    17   ar
    25    17    18   ar
    26     8     3    1
    27    18    13   ar
    28    29    21    1
    29    28    24    1
    30     9    11    1
    31     9    12    1
    32    19    20    1
