@<TRIPOS>MOLECULE
*****
 46 51 0 0 0
SMALL
GASTEIGER

@<TRIPOS>ATOM
      1 C          63.0758   85.4958   13.8154 C.2     1  UNL1        0.2461
      2 O          61.7750   85.2490   14.5204 O.2     1  UNL1       -0.2701
      3 N          63.6934   84.4136   12.9803 N.am    1  UNL1       -0.2964
      4 H          64.5471   84.5756   12.5176 H       1  UNL1        0.1501
      5 C          63.6652   90.5056   10.7584 C.3     1  UNL1        0.1305
      6 N          64.3493   90.3758   12.0870 N.ar    1  UNL1       -0.3242
      7 C          65.1989   91.4210   12.7471 C.ar    1  UNL1        0.0738
      8 C          65.6786   90.8691   14.0567 C.ar    1  UNL1       -0.0038
      9 C          65.1255   89.4828   14.2061 C.ar    1  UNL1        0.0133
     10 C          65.2638   88.4587   15.2933 C.ar    1  UNL1        0.0013
     11 C          64.5806   87.1297   15.1631 C.ar    1  UNL1        0.0046
     12 C          63.7591   86.8248   13.9456 C.ar    1  UNL1        0.0548
     13 C          63.6208   87.8489   12.8584 C.ar    1  UNL1        0.0217
     14 C          64.3040   89.1779   12.9886 C.ar    1  UNL1        0.0598
     15 C          65.5135   92.7796   12.1945 C.ar    1  UNL1        0.0968
     16 C          65.4011   93.0342   10.7206 C.ar    1  UNL1        0.0215
     17 C          65.7157   94.3928   10.1681 C.ar    1  UNL1        0.0146
     18 C          66.1428   95.4967   11.0895 C.ar    1  UNL1        0.0768
     19 CL         66.4574   96.8553   10.5369 Cl      1  UNL1       -0.0806
     20 C          66.2552   95.2420   12.5634 C.ar    1  UNL1        0.1102
     21 N          65.9405   93.8835   13.1159 N.ar    1  UNL1       -0.2415
     22 C          66.5571   91.5788   15.0439 C.3     1  UNL1        0.0238
     23 C          68.0474   91.4471   15.1520 C.3     1  UNL1        0.0044
     24 C          68.5110   92.3318   16.2712 C.3     1  UNL1        0.0003
     25 C          67.3071   93.0103   16.8547 C.3     1  UNL1        0.0003
     26 C          66.0996   92.5449   16.0962 C.3     1  UNL1        0.0044
     27 C          63.0101   83.0846   12.8501 C.3     1  UNL1        0.1260
     28 C          62.1683   81.8968   12.4892 C.3     1  UNL1        0.0269
     29 C          62.5497   80.7653   13.3972 C.3     1  UNL1        0.0022
     30 C          63.6272   81.2538   14.3192 C.3     1  UNL1        0.0022
     31 C          63.9118   82.6873   13.9811 C.3     1  UNL1        0.0269
     32 C          62.2513   83.7597   11.7464 C.2     1  UNL1        0.2419
     33 O          61.5227   82.9374   10.7251 O.2     1  UNL1       -0.2731
     34 N          62.2209   85.2571   11.6639 N.am    1  UNL1       -0.2826
     35 H          62.6991   85.7967   12.3342 H       1  UNL1        0.1549
     36 C          61.4621   85.9322   10.5602 C.ar    1  UNL1        0.0503
     37 C          60.5565   87.0872   10.8700 C.ar    1  UNL1        0.0147
     38 C          59.7976   87.7623    9.7663 C.ar    1  UNL1        0.0013
     39 C          59.9443   87.2826    8.3526 C.ar    1  UNL1        0.0001
     40 C          60.8499   86.1276    8.0428 C.ar    1  UNL1        0.0013
     41 C          61.6088   85.4525    9.1465 C.ar    1  UNL1        0.0147
     42 C          59.1855   87.9577    7.2489 C.2     1  UNL1        0.0012
     43 C          59.4165   89.4113    6.9599 C.2     1  UNL1        0.0151
     44 C          58.6577   90.0865    5.8562 C.2     1  UNL1        0.0729
     45 O          57.1676   89.9380    5.7706 O.co2   1  UNL1       -0.5446
     46 O          59.3890   90.9101    4.8379 O.co2   1  UNL1       -0.5446
@<TRIPOS>UNITY_ATOM_ATTR
45 1
charge -1
@<TRIPOS>BOND
     1     5     6    1
     2     6     7   ar
     3     7    15    1
     4    15    16   ar
     5    16    17   ar
     6    17    18   ar
     7    18    19    1
     8    18    20   ar
     9    20    21   ar
    10     7     8   ar
    11     8    22    1
    12    22    23    1
    13    23    24    1
    14    24    25    1
    15    25    26    1
    16     8     9   ar
    17     9    10   ar
    18    10    11   ar
    19    11    12   ar
    20    12     1    1
    21     1     2    2
    22     1     3   am
    23     3    27    1
    24    27    32    1
    25    32    33    2
    26    32    34   am
    27    34    36    1
    28    36    37   ar
    29    37    38   ar
    30    38    39   ar
    31    39    42    1
    32    42    43    2
    33    43    44    1
    34    44    45   ar
    35    44    46   ar
    36    39    40   ar
    37    40    41   ar
    38    27    28    1
    39    28    29    1
    40    29    30    1
    41    30    31    1
    42    12    13   ar
    43    13    14   ar
    44    14     6   ar
    45    21    15   ar
    46    26    22    1
    47    14     9   ar
    48    31    27    1
    49    41    36   ar
    50     3     4    1
    51    34    35    1
@<TRIPOS>MOLECULE
*****
 46 51 0 0 0
SMALL
GASTEIGER

@<TRIPOS>ATOM
      1 C          59.6992   90.0768    6.0175 C.2     1  UNL1        0.2461
      2 O          58.2049   90.0121    6.1313 O.2     1  UNL1       -0.2701
      3 N          60.5589   89.3424    7.0032 N.am    1  UNL1       -0.2964
      4 H          61.5397   89.3849    6.9285 H       1  UNL1        0.1501
      5 C          58.0845   93.0458    1.1833 C.3     1  UNL1        0.1305
      6 N          59.5373   92.9841    1.5515 N.ar    1  UNL1       -0.3242
      7 C          60.6662   93.6195    0.7953 C.ar    1  UNL1        0.0738
      8 C          61.9428   93.3043    1.5171 C.ar    1  UNL1       -0.0038
      9 C          61.6029   92.4742    2.7193 C.ar    1  UNL1        0.0133
     10 C          62.4551   91.8730    3.7974 C.ar    1  UNL1        0.0013
     11 C          61.8205   91.0739    4.8968 C.ar    1  UNL1        0.0046
     12 C          60.3338   90.8760    4.9181 C.ar    1  UNL1        0.0548
     13 C          59.4816   91.4772    3.8400 C.ar    1  UNL1        0.0217
     14 C          60.1162   92.2763    2.7406 C.ar    1  UNL1        0.0598
     15 C          60.5406   94.4280   -0.4618 C.ar    1  UNL1        0.0968
     16 C          60.9085   93.8215   -1.7835 C.ar    1  UNL1        0.0215
     17 C          60.7829   94.6300   -3.0407 C.ar    1  UNL1        0.0146
     18 C          60.2893   96.0450   -2.9762 C.ar    1  UNL1        0.0768
     19 CL         60.1637   96.8535   -4.2334 Cl      1  UNL1       -0.0806
     20 C          59.9215   96.6515   -1.6546 C.ar    1  UNL1        0.1102
     21 N          60.0471   95.8430   -0.3974 N.ar    1  UNL1       -0.2415
     22 C          63.3180   93.7423    1.1083 C.3     1  UNL1        0.0238
     23 C          64.5633   92.9084    1.1686 C.3     1  UNL1        0.0044
     24 C          65.7043   93.7419    0.6651 C.3     1  UNL1        0.0003
     25 C          65.1640   95.0910    0.2936 C.3     1  UNL1        0.0003
     26 C          63.6893   95.0913    0.5676 C.3     1  UNL1        0.0044
     27 C          59.9244   88.5432    8.1026 C.3     1  UNL1        0.1260
     28 C          59.4604   87.9285    9.3897 C.3     1  UNL1        0.0269
     29 C          58.4905   86.8335    9.0573 C.3     1  UNL1        0.0022
     30 C          58.3551   86.7715    7.5648 C.3     1  UNL1        0.0022
     31 C          59.2414   87.8282    6.9747 C.3     1  UNL1        0.0269
     32 C          60.7400   89.4253    9.0007 C.2     1  UNL1        0.2419
     33 O          60.2679   90.8130    9.3191 O.2     1  UNL1       -0.2731
     34 N          62.0277   88.9198    9.5803 N.am    1  UNL1       -0.2826
     35 H          62.3376   88.0090    9.3713 H       1  UNL1        0.1549
     36 C          62.8434   89.8019   10.4784 C.ar    1  UNL1        0.0503
     37 C          63.1280   89.3781   11.8889 C.ar    1  UNL1        0.0147
     38 C          63.9436   90.2602   12.7870 C.ar    1  UNL1        0.0013
     39 C          64.4748   91.5661   12.2747 C.ar    1  UNL1        0.0001
     40 C          64.1903   91.9899   10.8642 C.ar    1  UNL1        0.0013
     41 C          63.3746   91.1078    9.9661 C.ar    1  UNL1        0.0147
     42 C          65.2905   92.4482   13.1727 C.2     1  UNL1        0.0012
     43 C          66.0879   91.8469   14.2918 C.2     1  UNL1        0.0151
     44 C          66.9036   92.7290   15.1899 C.2     1  UNL1        0.0729
     45 O          66.5346   92.8725   16.6366 O.co2   1  UNL1       -0.5446
     46 O          68.0882   93.4675   14.6411 O.co2   1  UNL1       -0.5446
@<TRIPOS>UNITY_ATOM_ATTR
45 1
charge -1
@<TRIPOS>BOND
     1     5     6    1
     2     6     7   ar
     3     7    15    1
     4    15    16   ar
     5    16    17   ar
     6    17    18   ar
     7    18    19    1
     8    18    20   ar
     9    20    21   ar
    10     7     8   ar
    11     8    22    1
    12    22    23    1
    13    23    24    1
    14    24    25    1
    15    25    26    1
    16     8     9   ar
    17     9    10   ar
    18    10    11   ar
    19    11    12   ar
    20    12     1    1
    21     1     2    2
    22     1     3   am
    23     3    27    1
    24    27    32    1
    25    32    33    2
    26    32    34   am
    27    34    36    1
    28    36    37   ar
    29    37    38   ar
    30    38    39   ar
    31    39    42    1
    32    42    43    2
    33    43    44    1
    34    44    45   ar
    35    44    46   ar
    36    39    40   ar
    37    40    41   ar
    38    27    28    1
    39    28    29    1
    40    29    30    1
    41    30    31    1
    42    12    13   ar
    43    13    14   ar
    44    14     6   ar
    45    21    15   ar
    46    26    22    1
    47    14     9   ar
    48    31    27    1
    49    41    36   ar
    50     3     4    1
    51    34    35    1
@<TRIPOS>MOLECULE
*****
 46 51 0 0 0
SMALL
GASTEIGER

@<TRIPOS>ATOM
      1 C          61.0493   89.4627    9.7526 C.2     1  UNL1        0.2461
      2 O          60.1624   88.8258   10.7811 O.2     1  UNL1       -0.2701
      3 N          60.8151   89.2004    8.2944 N.am    1  UNL1       -0.2964
      4 H          61.3973   89.6183    7.6194 H       1  UNL1        0.1501
      5 C          64.8610   89.9832   14.2238 C.3     1  UNL1        0.1305
      6 N          64.9082   90.9799   13.1038 N.ar    1  UNL1       -0.3242
      7 C          65.8551   92.1380   12.9936 C.ar    1  UNL1        0.0738
      8 C          65.5488   92.8674   11.7191 C.ar    1  UNL1       -0.0038
      9 C          64.4127   92.1600   11.0417 C.ar    1  UNL1        0.0133
     10 C          63.6875   92.4274    9.7562 C.ar    1  UNL1        0.0013
     11 C          62.5664   91.5283    9.3265 C.ar    1  UNL1        0.0046
     12 C          62.1705   90.3618   10.1823 C.ar    1  UNL1        0.0548
     13 C          62.8956   90.0944   11.4679 C.ar    1  UNL1        0.0217
     14 C          64.0167   90.9935   11.8975 C.ar    1  UNL1        0.0598
     15 C          66.9211   92.5027   13.9839 C.ar    1  UNL1        0.0968
     16 C          66.5401   93.0111   15.3427 C.ar    1  UNL1        0.0215
     17 C          67.6061   93.3759   16.3330 C.ar    1  UNL1        0.0146
     18 C          69.0530   93.2322   15.9645 C.ar    1  UNL1        0.0768
     19 CL         70.1190   93.5969   16.9548 Cl      1  UNL1       -0.0806
     20 C          69.4339   92.7238   14.6057 C.ar    1  UNL1        0.1102
     21 N          68.3679   92.3591   13.6154 N.ar    1  UNL1       -0.2415
     22 C          66.2548   94.0895   11.2112 C.3     1  UNL1        0.0238
     23 C          67.1753   94.1484   10.0284 C.3     1  UNL1        0.0044
     24 C          67.6536   95.5626    9.8830 C.3     1  UNL1        0.0003
     25 C          67.0286   96.3778   10.9761 C.3     1  UNL1        0.0003
     26 C          66.1641   95.4674   11.7970 C.3     1  UNL1        0.0044
     27 C          59.6940   88.3012    7.8647 C.3     1  UNL1        0.1260
     28 C          58.5330   87.6150    7.2082 C.3     1  UNL1        0.0269
     29 C          58.2409   86.3606    7.9770 C.3     1  UNL1        0.0022
     30 C          59.2214   86.2714    9.1086 C.3     1  UNL1        0.0022
     31 C          60.1195   87.4709    9.0392 C.3     1  UNL1        0.0269
     32 C          59.5028   89.3195    6.7800 C.2     1  UNL1        0.2419
     33 O          58.1188   89.7118    6.3550 O.2     1  UNL1       -0.2731
     34 N          60.6956   89.9456    6.1204 N.am    1  UNL1       -0.2826
     35 H          61.6040   89.6881    6.3993 H       1  UNL1        0.1549
     36 C          60.5044   90.9639    5.0357 C.ar    1  UNL1        0.0503
     37 C          59.1790   91.6473    4.8737 C.ar    1  UNL1        0.0147
     38 C          58.9879   92.6656    3.7891 C.ar    1  UNL1        0.0013
     39 C          60.1221   93.0006    2.8663 C.ar    1  UNL1        0.0001
     40 C          61.4475   92.3171    3.0283 C.ar    1  UNL1        0.0013
     41 C          61.6386   91.2988    4.1130 C.ar    1  UNL1        0.0147
     42 C          59.9309   94.0189    1.7817 C.2     1  UNL1        0.0012
     43 C          59.1205   93.6773    0.5667 C.2     1  UNL1        0.0151
     44 C          58.9293   94.6956   -0.5180 C.2     1  UNL1        0.0729
     45 O          60.1182   95.2444   -1.2495 O.co2   1  UNL1       -0.5446
     46 O          57.5492   95.1651   -0.8711 O.co2   1  UNL1       -0.5446
@<TRIPOS>UNITY_ATOM_ATTR
45 1
charge -1
@<TRIPOS>BOND
     1     5     6    1
     2     6     7   ar
     3     7    15    1
     4    15    16   ar
     5    16    17   ar
     6    17    18   ar
     7    18    19    1
     8    18    20   ar
     9    20    21   ar
    10     7     8   ar
    11     8    22    1
    12    22    23    1
    13    23    24    1
    14    24    25    1
    15    25    26    1
    16     8     9   ar
    17     9    10   ar
    18    10    11   ar
    19    11    12   ar
    20    12     1    1
    21     1     2    2
    22     1     3   am
    23     3    27    1
    24    27    32    1
    25    32    33    2
    26    32    34   am
    27    34    36    1
    28    36    37   ar
    29    37    38   ar
    30    38    39   ar
    31    39    42    1
    32    42    43    2
    33    43    44    1
    34    44    45   ar
    35    44    46   ar
    36    39    40   ar
    37    40    41   ar
    38    27    28    1
    39    28    29    1
    40    29    30    1
    41    30    31    1
    42    12    13   ar
    43    13    14   ar
    44    14     6   ar
    45    21    15   ar
    46    26    22    1
    47    14     9   ar
    48    31    27    1
    49    41    36   ar
    50     3     4    1
    51    34    35    1
@<TRIPOS>MOLECULE
*****
 46 51 0 0 0
SMALL
GASTEIGER

@<TRIPOS>ATOM
      1 C          60.9813   89.6627    9.8440 C.2     1  UNL1        0.2461
      2 O          59.7519   89.5958   10.7009 O.2     1  UNL1       -0.2701
      3 N          61.0515   88.8739    8.5702 N.am    1  UNL1       -0.2964
      4 H          61.8584   88.9178    8.0078 H       1  UNL1        0.1501
      5 C          64.8445   90.0519   14.2843 C.3     1  UNL1        0.1305
      6 N          64.9227   91.0408   13.1592 N.ar    1  UNL1       -0.3242
      7 C          65.9139   92.1599   13.0363 C.ar    1  UNL1        0.0738
      8 C          65.6272   92.8950   11.7606 C.ar    1  UNL1       -0.0038
      9 C          64.4588   92.2302   11.0951 C.ar    1  UNL1        0.0133
     10 C          63.7351   92.5204    9.8137 C.ar    1  UNL1        0.0013
     11 C          62.5759   91.6645    9.3967 C.ar    1  UNL1        0.0046
     12 C          62.1405   90.5186   10.2611 C.ar    1  UNL1        0.0548
     13 C          62.8642   90.2285   11.5425 C.ar    1  UNL1        0.0217
     14 C          64.0233   91.0843   11.9595 C.ar    1  UNL1        0.0598
     15 C          67.0010   92.4865   14.0169 C.ar    1  UNL1        0.0968
     16 C          66.6499   92.9842   15.3876 C.ar    1  UNL1        0.0215
     17 C          67.7370   93.3108   16.3682 C.ar    1  UNL1        0.0146
     18 C          69.1752   93.1397   15.9781 C.ar    1  UNL1        0.0768
     19 CL         70.2623   93.4663   16.9587 Cl      1  UNL1       -0.0806
     20 C          69.5263   92.6420   14.6073 C.ar    1  UNL1        0.1102
     21 N          68.4392   92.3154   13.6267 N.ar    1  UNL1       -0.2415
     22 C          66.3772   94.0858   11.2415 C.3     1  UNL1        0.0238
     23 C          67.3633   94.0826   10.1112 C.3     1  UNL1        0.0044
     24 C          67.8684   95.4837    9.9326 C.3     1  UNL1        0.0003
     25 C          67.1944   96.3528   10.9527 C.3     1  UNL1        0.0003
     26 C          66.2728   95.4888   11.7616 C.3     1  UNL1        0.0044
     27 C          59.8923   88.0180    8.1531 C.3     1  UNL1        0.1260
     28 C          58.8542   86.9567    7.9396 C.3     1  UNL1        0.0269
     29 C          57.8762   87.4631    6.9212 C.3     1  UNL1        0.0022
     30 C          58.3099   88.8374    6.5052 C.3     1  UNL1        0.0022
     31 C          59.5560   89.1804    7.2667 C.3     1  UNL1        0.0269
     32 C          60.4709   87.0346    9.1268 C.2     1  UNL1        0.2419
     33 O          59.7447   86.7266   10.4026 O.2     1  UNL1       -0.2731
     34 N          61.7757   86.3592    8.8247 N.am    1  UNL1       -0.2826
     35 H          62.2523   86.5614    7.9873 H       1  UNL1        0.1549
     36 C          62.3543   85.3758    9.7983 C.ar    1  UNL1        0.0503
     37 C          62.0245   85.4827   11.2577 C.ar    1  UNL1        0.0147
     38 C          62.6031   84.4993   12.2314 C.ar    1  UNL1        0.0013
     39 C          63.5116   83.4089   11.7458 C.ar    1  UNL1        0.0001
     40 C          63.8414   83.3020   10.2864 C.ar    1  UNL1        0.0013
     41 C          63.2628   84.2854    9.3127 C.ar    1  UNL1        0.0147
     42 C          64.0902   82.4255   12.7194 C.2     1  UNL1        0.0012
     43 C          63.2330   81.3269   13.2746 C.2     1  UNL1        0.0151
     44 C          63.8117   80.3435   14.2482 C.2     1  UNL1        0.0729
     45 O          62.9552   79.2434   14.8015 O.co2   1  UNL1       -0.5446
     46 O          65.2468   80.4601   14.6686 O.co2   1  UNL1       -0.5446
@<TRIPOS>UNITY_ATOM_ATTR
45 1
charge -1
@<TRIPOS>BOND
     1     5     6    1
     2     6     7   ar
     3     7    15    1
     4    15    16   ar
     5    16    17   ar
     6    17    18   ar
     7    18    19    1
     8    18    20   ar
     9    20    21   ar
    10     7     8   ar
    11     8    22    1
    12    22    23    1
    13    23    24    1
    14    24    25    1
    15    25    26    1
    16     8     9   ar
    17     9    10   ar
    18    10    11   ar
    19    11    12   ar
    20    12     1    1
    21     1     2    2
    22     1     3   am
    23     3    27    1
    24    27    32    1
    25    32    33    2
    26    32    34   am
    27    34    36    1
    28    36    37   ar
    29    37    38   ar
    30    38    39   ar
    31    39    42    1
    32    42    43    2
    33    43    44    1
    34    44    45   ar
    35    44    46   ar
    36    39    40   ar
    37    40    41   ar
    38    27    28    1
    39    28    29    1
    40    29    30    1
    41    30    31    1
    42    12    13   ar
    43    13    14   ar
    44    14     6   ar
    45    21    15   ar
    46    26    22    1
    47    14     9   ar
    48    31    27    1
    49    41    36   ar
    50     3     4    1
    51    34    35    1
@<TRIPOS>MOLECULE
*****
 46 51 0 0 0
SMALL
GASTEIGER

@<TRIPOS>ATOM
      1 C          59.4691   89.4434    7.4934 C.2     1  UNL1        0.2461
      2 O          58.5431   88.3366    7.0842 O.2     1  UNL1       -0.2701
      3 N          59.4678   90.7399    6.7391 N.am    1  UNL1       -0.2964
      4 H          60.0756   91.4663    7.0077 H       1  UNL1        0.1501
      5 C          63.4578   92.5369   10.5451 C.3     1  UNL1        0.1305
      6 N          63.1809   91.1154   10.9360 N.ar    1  UNL1       -0.3242
      7 C          63.8328   90.3674   12.0609 C.ar    1  UNL1        0.0738
      8 C          63.2582   88.9821   12.0907 C.ar    1  UNL1       -0.0038
      9 C          62.2513   88.8740   10.9842 C.ar    1  UNL1        0.0133
     10 C          61.3717   87.7453   10.5342 C.ar    1  UNL1        0.0013
     11 C          60.4444   87.9351    9.3707 C.ar    1  UNL1        0.0046
     12 C          60.3966   89.2536    8.6570 C.ar    1  UNL1        0.0548
     13 C          61.2761   90.3823    9.1069 C.ar    1  UNL1        0.0217
     14 C          62.2035   90.1925   10.2705 C.ar    1  UNL1        0.0598
     15 C          64.8760   90.9094   12.9925 C.ar    1  UNL1        0.0968
     16 C          64.6034   90.9773   14.4659 C.ar    1  UNL1        0.0215
     17 C          65.6467   91.5194   15.3975 C.ar    1  UNL1        0.0146
     18 C          66.9625   91.9936   14.8556 C.ar    1  UNL1        0.0768
     19 CL         68.0057   92.5356   15.7872 Cl      1  UNL1       -0.0806
     20 C          67.2351   91.9257   13.3822 C.ar    1  UNL1        0.1102
     21 N          66.1918   91.3837   12.4506 N.ar    1  UNL1       -0.2415
     22 C          63.6261   87.8956   13.0572 C.3     1  UNL1        0.0238
     23 C          63.4588   86.4220   12.8328 C.3     1  UNL1        0.0044
     24 C          63.9552   85.7076   14.0548 C.3     1  UNL1        0.0003
     25 C          64.4292   86.7399   15.0346 C.3     1  UNL1        0.0003
     26 C          64.2258   88.0921   14.4180 C.3     1  UNL1        0.0044
     27 C          58.5403   90.9297    5.5755 C.3     1  UNL1        0.1260
     28 C          57.8685   91.2316    4.2689 C.3     1  UNL1        0.0269
     29 C          56.4249   90.8422    4.3891 C.3     1  UNL1        0.0022
     30 C          56.2045   90.2997    5.7701 C.3     1  UNL1        0.0022
     31 C          57.5120   90.3538    6.5033 C.3     1  UNL1        0.0269
     32 C          59.7625   91.4659    4.8909 C.2     1  UNL1        0.2419
     33 O          61.1247   91.1581    5.4384 O.2     1  UNL1       -0.2731
     34 N          59.6226   92.3100    3.6589 N.am    1  UNL1       -0.2826
     35 H          58.7286   92.5120    3.2996 H       1  UNL1        0.1549
     36 C          60.8448   92.8462    2.9744 C.ar    1  UNL1        0.0503
     37 C          62.1334   92.0806    3.0319 C.ar    1  UNL1        0.0147
     38 C          63.3556   92.6168    2.3473 C.ar    1  UNL1        0.0013
     39 C          63.2893   93.9187    1.6052 C.ar    1  UNL1        0.0001
     40 C          62.0007   94.6843    1.5477 C.ar    1  UNL1        0.0013
     41 C          60.7785   94.1481    2.2323 C.ar    1  UNL1        0.0147
     42 C          64.5115   94.4549    0.9206 C.2     1  UNL1        0.0012
     43 C          64.3841   95.5633   -0.0819 C.2     1  UNL1        0.0151
     44 C          65.6063   96.0995   -0.7665 C.2     1  UNL1        0.0729
     45 O          65.7079   96.0562   -2.2624 O.co2   1  UNL1       -0.5446
     46 O          66.7269   96.6791    0.0448 O.co2   1  UNL1       -0.5446
@<TRIPOS>UNITY_ATOM_ATTR
45 1
charge -1
@<TRIPOS>BOND
     1     5     6    1
     2     6     7   ar
     3     7    15    1
     4    15    16   ar
     5    16    17   ar
     6    17    18   ar
     7    18    19    1
     8    18    20   ar
     9    20    21   ar
    10     7     8   ar
    11     8    22    1
    12    22    23    1
    13    23    24    1
    14    24    25    1
    15    25    26    1
    16     8     9   ar
    17     9    10   ar
    18    10    11   ar
    19    11    12   ar
    20    12     1    1
    21     1     2    2
    22     1     3   am
    23     3    27    1
    24    27    32    1
    25    32    33    2
    26    32    34   am
    27    34    36    1
    28    36    37   ar
    29    37    38   ar
    30    38    39   ar
    31    39    42    1
    32    42    43    2
    33    43    44    1
    34    44    45   ar
    35    44    46   ar
    36    39    40   ar
    37    40    41   ar
    38    27    28    1
    39    28    29    1
    40    29    30    1
    41    30    31    1
    42    12    13   ar
    43    13    14   ar
    44    14     6   ar
    45    21    15   ar
    46    26    22    1
    47    14     9   ar
    48    31    27    1
    49    41    36   ar
    50     3     4    1
    51    34    35    1
@<TRIPOS>MOLECULE
*****
 46 51 0 0 0
SMALL
GASTEIGER

@<TRIPOS>ATOM
      1 C          59.2277   89.6212    7.1456 C.2     1  UNL1        0.2461
      2 O          58.2170   88.6092    6.6934 O.2     1  UNL1       -0.2701
      3 N          59.3474   90.9335    6.4291 N.am    1  UNL1       -0.2964
      4 H          60.0107   91.5977    6.7259 H       1  UNL1        0.1501
      5 C          61.2397   84.9341   10.1078 C.3     1  UNL1        0.1305
      6 N          61.6618   86.3073   10.5393 N.ar    1  UNL1       -0.3242
      7 C          62.5743   86.6298   11.6853 C.ar    1  UNL1        0.0738
      8 C          62.7220   88.1209   11.7547 C.ar    1  UNL1       -0.0038
      9 C          61.9008   88.7199   10.6516 C.ar    1  UNL1        0.0133
     10 C          61.6650   90.1412   10.2342 C.ar    1  UNL1        0.0013
     11 C          60.7740   90.4416    9.0655 C.ar    1  UNL1        0.0046
     12 C          60.1188   89.3207    8.3143 C.ar    1  UNL1        0.0548
     13 C          60.3546   87.8994    8.7318 C.ar    1  UNL1        0.0217
     14 C          61.2456   87.5991    9.9004 C.ar    1  UNL1        0.0598
     15 C          63.2249   85.6358   12.6011 C.ar    1  UNL1        0.0968
     16 C          63.9372   84.4451   12.0311 C.ar    1  UNL1        0.0215
     17 C          64.5878   83.4511   12.9469 C.ar    1  UNL1        0.0146
     18 C          64.5261   83.6477   14.4326 C.ar    1  UNL1        0.0768
     19 CL         65.1766   82.6537   15.3484 Cl      1  UNL1       -0.0806
     20 C          63.8138   84.8384   15.0026 C.ar    1  UNL1        0.1102
     21 N          63.1632   85.8324   14.0868 N.ar    1  UNL1       -0.2415
     22 C          63.5462   88.8798   12.7521 C.3     1  UNL1        0.0238
     23 C          64.1405   88.3221   14.0113 C.3     1  UNL1        0.0044
     24 C          64.8824   89.4272   14.7029 C.3     1  UNL1        0.0003
     25 C          64.7465   90.6680   13.8710 C.3     1  UNL1        0.0003
     26 C          63.9207   90.3297   12.6654 C.3     1  UNL1        0.0044
     27 C          58.4563   91.2340    5.2604 C.3     1  UNL1        0.1260
     28 C          57.8287   91.6431    3.9610 C.3     1  UNL1        0.0269
     29 C          56.3670   91.3132    4.0280 C.3     1  UNL1        0.0022
     30 C          56.0911   90.7001    5.3689 C.3     1  UNL1        0.0022
     31 C          57.3825   90.6512    6.1306 C.3     1  UNL1        0.0269
     32 C          59.7164   91.7540    4.6346 C.2     1  UNL1        0.2419
     33 O          61.0505   91.3577    5.1940 O.2     1  UNL1       -0.2731
     34 N          59.6424   92.6702    3.4493 N.am    1  UNL1       -0.2826
     35 H          58.7667   92.9303    3.0822 H       1  UNL1        0.1549
     36 C          60.9025   93.1903    2.8235 C.ar    1  UNL1        0.0503
     37 C          60.9059   94.5275    2.1439 C.ar    1  UNL1        0.0147
     38 C          62.1660   95.0475    1.5180 C.ar    1  UNL1        0.0013
     39 C          63.4228   94.2304    1.5717 C.ar    1  UNL1        0.0001
     40 C          63.4194   92.8931    2.2514 C.ar    1  UNL1        0.0013
     41 C          62.1593   92.3731    2.8772 C.ar    1  UNL1        0.0147
     42 C          64.6829   94.7504    0.9459 C.2     1  UNL1        0.0012
     43 C          64.6118   95.8039   -0.1193 C.2     1  UNL1        0.0151
     44 C          65.8719   96.3239   -0.7452 C.2     1  UNL1        0.0729
     45 O          66.9773   96.8511    0.1209 O.co2   1  UNL1       -0.5446
     46 O          66.0266   96.3168   -2.2372 O.co2   1  UNL1       -0.5446
@<TRIPOS>UNITY_ATOM_ATTR
45 1
charge -1
@<TRIPOS>BOND
     1     5     6    1
     2     6     7   ar
     3     7    15    1
     4    15    16   ar
     5    16    17   ar
     6    17    18   ar
     7    18    19    1
     8    18    20   ar
     9    20    21   ar
    10     7     8   ar
    11     8    22    1
    12    22    23    1
    13    23    24    1
    14    24    25    1
    15    25    26    1
    16     8     9   ar
    17     9    10   ar
    18    10    11   ar
    19    11    12   ar
    20    12     1    1
    21     1     2    2
    22     1     3   am
    23     3    27    1
    24    27    32    1
    25    32    33    2
    26    32    34   am
    27    34    36    1
    28    36    37   ar
    29    37    38   ar
    30    38    39   ar
    31    39    42    1
    32    42    43    2
    33    43    44    1
    34    44    45   ar
    35    44    46   ar
    36    39    40   ar
    37    40    41   ar
    38    27    28    1
    39    28    29    1
    40    29    30    1
    41    30    31    1
    42    12    13   ar
    43    13    14   ar
    44    14     6   ar
    45    21    15   ar
    46    26    22    1
    47    14     9   ar
    48    31    27    1
    49    41    36   ar
    50     3     4    1
    51    34    35    1
@<TRIPOS>MOLECULE
*****
 46 51 0 0 0
SMALL
GASTEIGER

@<TRIPOS>ATOM
      1 C          58.6078   89.0443    6.7622 C.2     1  UNL1        0.2461
      2 O          57.1475   88.7127    6.6755 O.2     1  UNL1       -0.2701
      3 N          59.1532   90.2292    6.0214 N.am    1  UNL1       -0.2964
      4 H          60.1116   90.4468    6.0784 H       1  UNL1        0.1501
      5 C          61.2202   89.1646   12.0493 C.3     1  UNL1        0.1305
      6 N          61.4471   87.9865   11.1489 N.ar    1  UNL1       -0.3242
      7 C          62.2982   86.7909   11.4590 C.ar    1  UNL1        0.0738
      8 C          62.2399   85.8627   10.2822 C.ar    1  UNL1       -0.0038
      9 C          61.3527   86.4846    9.2448 C.ar    1  UNL1        0.0133
     10 C          60.9278   86.0252    7.8816 C.ar    1  UNL1        0.0013
     11 C          60.0128   86.8785    7.0541 C.ar    1  UNL1        0.0046
     12 C          59.5228   88.1911    7.5898 C.ar    1  UNL1        0.0548
     13 C          59.9478   88.6504    8.9530 C.ar    1  UNL1        0.0217
     14 C          60.8628   87.7972    9.7805 C.ar    1  UNL1        0.0598
     15 C          63.0719   86.5635   12.7238 C.ar    1  UNL1        0.0968
     16 C          63.1837   85.1817   13.2965 C.ar    1  UNL1        0.0215
     17 C          63.9573   84.9543   14.5613 C.ar    1  UNL1        0.0146
     18 C          64.6191   86.1087   15.2535 C.ar    1  UNL1        0.0768
     19 CL         65.3927   85.8813   16.5183 Cl      1  UNL1       -0.0806
     20 C          64.5073   87.4905   14.6809 C.ar    1  UNL1        0.1102
     21 N          63.7337   87.7180   13.4161 N.ar    1  UNL1       -0.2415
     22 C          62.9450   84.5441   10.1635 C.3     1  UNL1        0.0238
     23 C          62.7695   83.3653   11.0744 C.3     1  UNL1        0.0044
     24 C          63.6654   82.2654   10.5870 C.3     1  UNL1        0.0003
     25 C          64.3945   82.7644    9.3748 C.3     1  UNL1        0.0003
     26 C          63.9493   84.1727    9.1131 C.3     1  UNL1        0.0044
     27 C          58.2382   91.0824    5.1939 C.3     1  UNL1        0.1260
     28 C          57.5900   92.0424    4.2410 C.3     1  UNL1        0.0269
     29 C          56.1044   91.9463    4.4250 C.3     1  UNL1        0.0022
     30 C          55.8344   90.9268    5.4916 C.3     1  UNL1        0.0022
     31 C          57.1532   90.3929    5.9668 C.3     1  UNL1        0.0269
     32 C          59.5144   91.5936    4.5939 C.2     1  UNL1        0.2419
     33 O          60.8344   91.1762    5.1713 O.2     1  UNL1       -0.2731
     34 N          59.4706   92.5220    3.4168 N.am    1  UNL1       -0.2826
     35 H          58.6042   92.7960    3.0378 H       1  UNL1        0.1549
     36 C          60.7469   93.0332    2.8168 C.ar    1  UNL1        0.0503
     37 C          62.0009   92.2157    2.9129 C.ar    1  UNL1        0.0147
     38 C          63.2772   92.7269    2.3130 C.ar    1  UNL1        0.0013
     39 C          63.2995   94.0554    1.6169 C.ar    1  UNL1        0.0001
     40 C          62.0454   94.8728    1.5208 C.ar    1  UNL1        0.0013
     41 C          60.7692   94.3617    2.1208 C.ar    1  UNL1        0.0147
     42 C          64.5757   94.5666    1.0170 C.2     1  UNL1        0.0012
     43 C          64.5488   95.7431    0.0870 C.2     1  UNL1        0.0151
     44 C          65.8250   96.2542   -0.5129 C.2     1  UNL1        0.0729
     45 O          66.8824   96.8497    0.3686 O.co2   1  UNL1       -0.5446
     46 O          66.0439   96.1698   -1.9945 O.co2   1  UNL1       -0.5446
@<TRIPOS>UNITY_ATOM_ATTR
45 1
charge -1
@<TRIPOS>BOND
     1     5     6    1
     2     6     7   ar
     3     7    15    1
     4    15    16   ar
     5    16    17   ar
     6    17    18   ar
     7    18    19    1
     8    18    20   ar
     9    20    21   ar
    10     7     8   ar
    11     8    22    1
    12    22    23    1
    13    23    24    1
    14    24    25    1
    15    25    26    1
    16     8     9   ar
    17     9    10   ar
    18    10    11   ar
    19    11    12   ar
    20    12     1    1
    21     1     2    2
    22     1     3   am
    23     3    27    1
    24    27    32    1
    25    32    33    2
    26    32    34   am
    27    34    36    1
    28    36    37   ar
    29    37    38   ar
    30    38    39   ar
    31    39    42    1
    32    42    43    2
    33    43    44    1
    34    44    45   ar
    35    44    46   ar
    36    39    40   ar
    37    40    41   ar
    38    27    28    1
    39    28    29    1
    40    29    30    1
    41    30    31    1
    42    12    13   ar
    43    13    14   ar
    44    14     6   ar
    45    21    15   ar
    46    26    22    1
    47    14     9   ar
    48    31    27    1
    49    41    36   ar
    50     3     4    1
    51    34    35    1
