@<TRIPOS>MOLECULE
*****
 30 33 0 0 0
SMALL
GASTEIGER

@<TRIPOS>ATOM
      1 C          62.7882   83.4583   13.8176 C.ar    1  UNL1        0.1056
      2 C          63.6593   83.7402   15.0057 C.ar    1  UNL1        0.0214
      3 C          64.2232   85.1146   15.2131 C.ar    1  UNL1        0.0379
      4 C          63.9159   86.2072   14.2323 C.ar    1  UNL1        0.1342
      5 C          63.0447   85.9253   13.0442 C.ar    1  UNL1        0.0132
      6 C          62.4809   84.5508   12.8369 C.ar    1  UNL1        0.0171
      7 C          62.7374   87.0178   12.0634 C.3     1  UNL1        0.0330
      8 C          63.3013   88.3923   12.2708 C.3     1  UNL1        0.0449
      9 C          64.1724   88.6742   13.4589 C.3     1  UNL1        0.1367
     10 C          63.8651   89.7667   12.4781 C.3     1  UNL1        0.0615
     11 C          64.4290   91.1411   12.6855 C.3     1  UNL1        0.0970
     12 N          65.3002   91.4230   13.8736 N.am    1  UNL1       -0.2790
     13 C          65.8640   92.7975   14.0809 C.2     1  UNL1        0.2301
     14 O          66.7352   93.0793   15.2690 O.2     1  UNL1       -0.2745
     15 C          65.6075   90.3305   14.8543 C.3     1  UNL1        0.0970
     16 C          65.0436   88.9561   14.6470 C.3     1  UNL1        0.0615
     17 O          64.4797   87.5816   14.4396 O.3     1  UNL1       -0.4828
     18 C          61.6604   80.7094   13.4028 C.3     1  UNL1        0.1816
     19 S          62.2243   82.0839   13.6103 S.O2    1  UNL1        0.0104
     20 O          62.1613   81.8856   15.0957 O.2     1  UNL1       -0.1686
     21 O          62.2874   82.2821   12.1248 O.2     1  UNL1       -0.1686
     22 C          65.5567   93.8900   13.1002 C.3     1  UNL1        0.1124
     23 C          66.2583   93.9273   11.7748 C.ar    1  UNL1       -0.0024
     24 C          66.8378   92.6701   11.1973 C.ar    1  UNL1       -0.0021
     25 C          67.5393   92.7076    9.8720 C.ar    1  UNL1        0.0111
     26 C          67.6614   94.0022    9.1243 C.ar    1  UNL1        0.0585
     27 CL         68.3630   94.0395    7.7990 Cl      1  UNL1       -0.0822
     28 C          67.0819   95.2594    9.7018 C.ar    1  UNL1        0.0225
     29 C          66.3804   95.2220   11.0271 C.ar    1  UNL1        0.0550
     30 CL         65.8009   96.4792   11.6047 Cl      1  UNL1       -0.0825
@<TRIPOS>BOND
     1    18    19    1
     2    19    20    2
     3    19    21    2
     4    19     1    1
     5     1     2   ar
     6     2     3   ar
     7     3     4   ar
     8     4     5   ar
     9     5     6   ar
    10     5     7    1
    11     7     8    1
    12     8     9    1
    13     9    10    1
    14    10    11    1
    15    11    12    1
    16    12    13   am
    17    13    14    2
    18    13    22    1
    19    22    23    1
    20    23    24   ar
    21    24    25   ar
    22    25    26   ar
    23    26    27    1
    24    26    28   ar
    25    28    29   ar
    26    29    30    1
    27    12    15    1
    28    15    16    1
    29     9    17    1
    30     6     1   ar
    31    16     9    1
    32    17     4    1
    33    29    23   ar
@<TRIPOS>MOLECULE
*****
 30 33 0 0 0
SMALL
GASTEIGER

@<TRIPOS>ATOM
      1 C          65.8949   94.2322   11.6545 C.ar    1  UNL1        0.1056
      2 C          66.5633   93.8849   12.9517 C.ar    1  UNL1        0.0214
      3 C          66.2680   92.5751   13.6204 C.ar    1  UNL1        0.0379
      4 C          65.3044   91.6125   12.9918 C.ar    1  UNL1        0.1342
      5 C          64.6361   91.9598   11.6946 C.ar    1  UNL1        0.0132
      6 C          64.9314   93.2697   11.0260 C.ar    1  UNL1        0.0171
      7 C          63.6725   90.9973   11.0661 C.3     1  UNL1        0.0330
      8 C          63.3772   89.6874   11.7348 C.3     1  UNL1        0.0449
      9 C          64.0456   89.3401   13.0319 C.3     1  UNL1        0.1367
     10 C          63.0820   88.3776   12.4034 C.3     1  UNL1        0.0615
     11 C          62.7868   87.0678   13.0721 C.3     1  UNL1        0.0970
     12 N          63.4551   86.7204   14.3692 N.am    1  UNL1       -0.2790
     13 C          63.1598   85.4105   15.0379 C.2     1  UNL1        0.2301
     14 O          63.8282   85.0632   16.3351 O.2     1  UNL1       -0.2745
     15 C          64.4187   87.6829   14.9978 C.3     1  UNL1        0.0970
     16 C          64.7139   88.9928   14.3291 C.3     1  UNL1        0.0615
     17 O          65.0092   90.3027   13.6605 O.3     1  UNL1       -0.4828
     18 C          66.4854   96.8520   10.3172 C.3     1  UNL1        0.1816
     19 S          66.1902   95.5421   10.9859 S.O2    1  UNL1        0.0104
     20 O          66.2533   94.8494    9.6569 O.2     1  UNL1       -0.1686
     21 O          66.1270   96.2347   12.3148 O.2     1  UNL1       -0.1686
     22 C          62.1963   84.4480   14.4094 C.3     1  UNL1        0.1124
     23 C          62.6370   83.5863   13.2634 C.ar    1  UNL1       -0.0024
     24 C          63.3584   84.1979   12.0992 C.ar    1  UNL1       -0.0021
     25 C          63.7991   83.3361   10.9533 C.ar    1  UNL1        0.0111
     26 C          63.5184   81.8627   10.9716 C.ar    1  UNL1        0.0585
     27 CL         63.9592   81.0010    9.8257 Cl      1  UNL1       -0.0822
     28 C          62.7971   81.2511   12.1359 C.ar    1  UNL1        0.0225
     29 C          62.3564   82.1129   13.2818 C.ar    1  UNL1        0.0550
     30 CL         61.6350   81.5012   14.4461 Cl      1  UNL1       -0.0825
@<TRIPOS>BOND
     1    18    19    1
     2    19    20    2
     3    19    21    2
     4    19     1    1
     5     1     2   ar
     6     2     3   ar
     7     3     4   ar
     8     4     5   ar
     9     5     6   ar
    10     5     7    1
    11     7     8    1
    12     8     9    1
    13     9    10    1
    14    10    11    1
    15    11    12    1
    16    12    13   am
    17    13    14    2
    18    13    22    1
    19    22    23    1
    20    23    24   ar
    21    24    25   ar
    22    25    26   ar
    23    26    27    1
    24    26    28   ar
    25    28    29   ar
    26    29    30    1
    27    12    15    1
    28    15    16    1
    29     9    17    1
    30     6     1   ar
    31    16     9    1
    32    17     4    1
    33    29    23   ar
@<TRIPOS>MOLECULE
*****
 30 33 0 0 0
SMALL
GASTEIGER

@<TRIPOS>ATOM
      1 C          63.0009   81.0780   11.9765 C.ar    1  UNL1        0.1056
      2 C          63.6264   81.2318   13.3311 C.ar    1  UNL1        0.0214
      3 C          63.8924   82.6008   13.8834 C.ar    1  UNL1        0.0379
      4 C          63.5329   83.8162   13.0809 C.ar    1  UNL1        0.1342
      5 C          62.9074   83.6624   11.7263 C.ar    1  UNL1        0.0132
      6 C          62.6414   82.2933   11.1741 C.ar    1  UNL1        0.0171
      7 C          62.5479   84.8776   10.9239 C.3     1  UNL1        0.0330
      8 C          62.8138   86.2467   11.4761 C.3     1  UNL1        0.0449
      9 C          63.4393   86.4005   12.8307 C.3     1  UNL1        0.1367
     10 C          63.0798   87.6157   12.0283 C.3     1  UNL1        0.0615
     11 C          63.3458   88.9847   12.5806 C.3     1  UNL1        0.0970
     12 N          63.9713   89.1385   13.9352 N.am    1  UNL1       -0.2790
     13 C          64.2373   90.5076   14.4874 C.2     1  UNL1        0.2301
     14 O          64.8628   90.6614   15.8421 O.2     1  UNL1       -0.2745
     15 C          64.3308   87.9233   14.7376 C.3     1  UNL1        0.0970
     16 C          64.0648   86.5543   14.1854 C.3     1  UNL1        0.0615
     17 O          63.7989   85.1852   13.6332 O.3     1  UNL1       -0.4828
     18 C          62.4690   78.3399   10.8719 C.3     1  UNL1        0.1816
     19 S          62.7350   79.7090   11.4242 S.O2    1  UNL1        0.0104
     20 O          62.4587   79.2040   12.8093 O.2     1  UNL1       -0.1686
     21 O          63.0113   80.2141   10.0391 O.2     1  UNL1       -0.1686
     22 C          63.8777   91.7228   13.6850 C.3     1  UNL1        0.1124
     23 C          64.8238   92.2398   12.6420 C.ar    1  UNL1       -0.0024
     24 C          64.5751   91.9461   11.1922 C.ar    1  UNL1       -0.0021
     25 C          65.5211   92.4631   10.1493 C.ar    1  UNL1        0.0111
     26 C          66.7158   93.2737   10.5562 C.ar    1  UNL1        0.0585
     27 CL         67.6619   93.7907    9.5131 Cl      1  UNL1       -0.0822
     28 C          66.9646   93.5674   12.0059 C.ar    1  UNL1        0.0225
     29 C          66.0185   93.0504   13.0488 C.ar    1  UNL1        0.0550
     30 CL         66.2672   93.3441   14.4987 Cl      1  UNL1       -0.0825
@<TRIPOS>BOND
     1    18    19    1
     2    19    20    2
     3    19    21    2
     4    19     1    1
     5     1     2   ar
     6     2     3   ar
     7     3     4   ar
     8     4     5   ar
     9     5     6   ar
    10     5     7    1
    11     7     8    1
    12     8     9    1
    13     9    10    1
    14    10    11    1
    15    11    12    1
    16    12    13   am
    17    13    14    2
    18    13    22    1
    19    22    23    1
    20    23    24   ar
    21    24    25   ar
    22    25    26   ar
    23    26    27    1
    24    26    28   ar
    25    28    29   ar
    26    29    30    1
    27    12    15    1
    28    15    16    1
    29     9    17    1
    30     6     1   ar
    31    16     9    1
    32    17     4    1
    33    29    23   ar
@<TRIPOS>MOLECULE
*****
 30 33 0 0 0
SMALL
GASTEIGER

@<TRIPOS>ATOM
      1 C          67.9206   93.2125   15.2109 C.ar    1  UNL1        0.1056
      2 C          66.9611   92.7061   16.2467 C.ar    1  UNL1        0.0214
      3 C          65.7027   92.0070   15.8254 C.ar    1  UNL1        0.0379
      4 C          65.4037   91.8143   14.3681 C.ar    1  UNL1        0.1342
      5 C          66.3632   92.3206   13.3323 C.ar    1  UNL1        0.0132
      6 C          67.6217   93.0198   13.7537 C.ar    1  UNL1        0.0171
      7 C          66.0643   92.1279   11.8751 C.3     1  UNL1        0.0330
      8 C          64.8059   91.4288   11.4536 C.3     1  UNL1        0.0449
      9 C          63.8463   90.9224   12.4894 C.3     1  UNL1        0.1367
     10 C          63.5475   90.7297   11.0322 C.3     1  UNL1        0.0615
     11 C          62.2890   90.0306   10.6109 C.3     1  UNL1        0.0970
     12 N          61.3295   89.5242   11.6467 N.am    1  UNL1       -0.2790
     13 C          60.0711   88.8251   11.2252 C.2     1  UNL1        0.2301
     14 O          59.1115   88.3187   12.2610 O.2     1  UNL1       -0.2745
     15 C          61.6284   89.7169   13.1039 C.3     1  UNL1        0.0970
     16 C          62.8868   90.4160   13.5253 C.3     1  UNL1        0.0615
     17 O          64.1453   91.1152   13.9467 O.3     1  UNL1       -0.4828
     18 C          70.4375   94.6108   16.0538 C.3     1  UNL1        0.1816
     19 S          69.1790   93.9116   15.6323 S.O2    1  UNL1        0.0104
     20 O          69.9584   93.1126   14.6303 O.2     1  UNL1       -0.1686
     21 O          68.3996   94.7106   16.6343 O.2     1  UNL1       -0.1686
     22 C          59.7722   88.6324    9.7680 C.3     1  UNL1        0.1124
     23 C          60.4581   87.5420    8.9995 C.ar    1  UNL1       -0.0024
     24 C          61.8562   87.1356    9.3601 C.ar    1  UNL1       -0.0021
     25 C          62.5421   86.0452    8.5916 C.ar    1  UNL1        0.0111
     26 C          61.8298   85.3612    7.4624 C.ar    1  UNL1        0.0585
     27 CL         62.5157   84.2708    6.6939 Cl      1  UNL1       -0.0822
     28 C          60.4317   85.7676    7.1019 C.ar    1  UNL1        0.0225
     29 C          59.7458   86.8580    7.8704 C.ar    1  UNL1        0.0550
     30 CL         58.3477   87.2644    7.5098 Cl      1  UNL1       -0.0825
@<TRIPOS>BOND
     1    18    19    1
     2    19    20    2
     3    19    21    2
     4    19     1    1
     5     1     2   ar
     6     2     3   ar
     7     3     4   ar
     8     4     5   ar
     9     5     6   ar
    10     5     7    1
    11     7     8    1
    12     8     9    1
    13     9    10    1
    14    10    11    1
    15    11    12    1
    16    12    13   am
    17    13    14    2
    18    13    22    1
    19    22    23    1
    20    23    24   ar
    21    24    25   ar
    22    25    26   ar
    23    26    27    1
    24    26    28   ar
    25    28    29   ar
    26    29    30    1
    27    12    15    1
    28    15    16    1
    29     9    17    1
    30     6     1   ar
    31    16     9    1
    32    17     4    1
    33    29    23   ar
@<TRIPOS>MOLECULE
*****
 30 33 0 0 0
SMALL
GASTEIGER

@<TRIPOS>ATOM
      1 C          62.8461   81.4546   12.9574 C.ar    1  UNL1        0.1056
      2 C          62.4192   82.0910   11.6679 C.ar    1  UNL1        0.0214
      3 C          62.5095   83.5788   11.4999 C.ar    1  UNL1        0.0379
      4 C          63.0266   84.4302   12.6214 C.ar    1  UNL1        0.1342
      5 C          63.4535   83.7938   13.9109 C.ar    1  UNL1        0.0132
      6 C          63.3632   82.3059   14.0789 C.ar    1  UNL1        0.0171
      7 C          63.9706   84.6451   15.0323 C.3     1  UNL1        0.0330
      8 C          64.0609   86.1330   14.8644 C.3     1  UNL1        0.0449
      9 C          63.6340   86.7695   13.5749 C.3     1  UNL1        0.1367
     10 C          64.1512   87.6208   14.6964 C.3     1  UNL1        0.0615
     11 C          64.2414   89.1086   14.5283 C.3     1  UNL1        0.0970
     12 N          63.8146   89.7450   13.2389 N.am    1  UNL1       -0.2790
     13 C          63.9049   91.2329   13.0709 C.2     1  UNL1        0.2301
     14 O          63.4780   91.8694   11.7814 O.2     1  UNL1       -0.2745
     15 C          63.2974   88.8937   12.1174 C.3     1  UNL1        0.0970
     16 C          63.2072   87.4059   12.2854 C.3     1  UNL1        0.0615
     17 O          63.1169   85.9180   12.4534 O.3     1  UNL1       -0.4828
     18 C          62.6656   78.4789   13.2934 C.3     1  UNL1        0.1816
     19 S          62.7558   79.9668   13.1254 S.O2    1  UNL1        0.0104
     20 O          62.8076   80.1319   14.6154 O.2     1  UNL1       -0.1686
     21 O          62.7041   79.8016   11.6355 O.2     1  UNL1       -0.1686
     22 C          64.4220   92.0843   14.1924 C.3     1  UNL1        0.1124
     23 C          65.8999   92.2276   14.4052 C.ar    1  UNL1       -0.0024
     24 C          66.8432   92.0653   13.2504 C.ar    1  UNL1       -0.0021
     25 C          68.3211   92.2086   13.4633 C.ar    1  UNL1        0.0111
     26 C          68.8556   92.5142   14.8311 C.ar    1  UNL1        0.0585
     27 CL         70.3336   92.6575   15.0440 Cl      1  UNL1       -0.0822
     28 C          67.9123   92.6765   15.9860 C.ar    1  UNL1        0.0225
     29 C          66.4345   92.5332   15.7730 C.ar    1  UNL1        0.0550
     30 CL         65.4911   92.6954   16.9280 Cl      1  UNL1       -0.0825
@<TRIPOS>BOND
     1    18    19    1
     2    19    20    2
     3    19    21    2
     4    19     1    1
     5     1     2   ar
     6     2     3   ar
     7     3     4   ar
     8     4     5   ar
     9     5     6   ar
    10     5     7    1
    11     7     8    1
    12     8     9    1
    13     9    10    1
    14    10    11    1
    15    11    12    1
    16    12    13   am
    17    13    14    2
    18    13    22    1
    19    22    23    1
    20    23    24   ar
    21    24    25   ar
    22    25    26   ar
    23    26    27    1
    24    26    28   ar
    25    28    29   ar
    26    29    30    1
    27    12    15    1
    28    15    16    1
    29     9    17    1
    30     6     1   ar
    31    16     9    1
    32    17     4    1
    33    29    23   ar
@<TRIPOS>MOLECULE
*****
 30 33 0 0 0
SMALL
GASTEIGER

@<TRIPOS>ATOM
      1 C          67.4084   93.2794   14.9476 C.ar    1  UNL1        0.1056
      2 C          66.8809   94.1223   13.8245 C.ar    1  UNL1        0.0214
      3 C          65.8581   93.5609   12.8818 C.ar    1  UNL1        0.0379
      4 C          65.3628   92.1565   13.0622 C.ar    1  UNL1        0.1342
      5 C          65.8903   91.3136   14.1852 C.ar    1  UNL1        0.0132
      6 C          66.9131   91.8751   15.1279 C.ar    1  UNL1        0.0171
      7 C          65.3950   89.9093   14.3656 C.3     1  UNL1        0.0330
      8 C          64.3722   89.3478   13.4229 C.3     1  UNL1        0.0449
      9 C          63.8446   90.1907   12.2999 C.3     1  UNL1        0.1367
     10 C          63.3494   88.7864   12.4802 C.3     1  UNL1        0.0615
     11 C          62.3266   88.2250   11.5376 C.3     1  UNL1        0.0970
     12 N          61.7991   89.0679   10.4145 N.am    1  UNL1       -0.2790
     13 C          60.7762   88.5064    9.4718 C.2     1  UNL1        0.2301
     14 O          60.2487   89.3493    8.3488 O.2     1  UNL1       -0.2745
     15 C          62.2943   90.4722   10.2341 C.3     1  UNL1        0.0970
     16 C          63.3171   91.0336   11.1768 C.3     1  UNL1        0.0615
     17 O          64.3400   91.5951   12.1195 O.3     1  UNL1       -0.4828
     18 C          69.4540   94.4023   16.8329 C.3     1  UNL1        0.1816
     19 S          68.4312   93.8408   15.8902 S.O2    1  UNL1        0.0104
     20 O          68.6981   92.4635   16.4209 O.2     1  UNL1       -0.1686
     21 O          68.1642   95.2181   15.3596 O.2     1  UNL1       -0.1686
     22 C          60.2809   87.1021    9.6522 C.3     1  UNL1        0.1124
     23 C          61.2580   85.9833    9.8615 C.ar    1  UNL1       -0.0024
     24 C          61.5891   85.5269   11.2514 C.ar    1  UNL1       -0.0021
     25 C          62.5661   84.4081   11.4606 C.ar    1  UNL1        0.0111
     26 C          63.2119   83.7458   10.2799 C.ar    1  UNL1        0.0585
     27 CL         64.1890   82.6270   10.4891 Cl      1  UNL1       -0.0822
     28 C          62.8808   84.2022    8.8899 C.ar    1  UNL1        0.0225
     29 C          61.9038   85.3209    8.6807 C.ar    1  UNL1        0.0550
     30 CL         61.5727   85.7774    7.2907 Cl      1  UNL1       -0.0825
@<TRIPOS>BOND
     1    18    19    1
     2    19    20    2
     3    19    21    2
     4    19     1    1
     5     1     2   ar
     6     2     3   ar
     7     3     4   ar
     8     4     5   ar
     9     5     6   ar
    10     5     7    1
    11     7     8    1
    12     8     9    1
    13     9    10    1
    14    10    11    1
    15    11    12    1
    16    12    13   am
    17    13    14    2
    18    13    22    1
    19    22    23    1
    20    23    24   ar
    21    24    25   ar
    22    25    26   ar
    23    26    27    1
    24    26    28   ar
    25    28    29   ar
    26    29    30    1
    27    12    15    1
    28    15    16    1
    29     9    17    1
    30     6     1   ar
    31    16     9    1
    32    17     4    1
    33    29    23   ar
@<TRIPOS>MOLECULE
*****
 30 33 0 0 0
SMALL
GASTEIGER

@<TRIPOS>ATOM
      1 C          55.2823   90.9367   -5.7620 C.ar    1  UNL1        0.1056
      2 C          56.1263   91.7381   -6.7083 C.ar    1  UNL1        0.0214
      3 C          57.2641   92.5629   -6.1838 C.ar    1  UNL1        0.0379
      4 C          57.5579   92.5863   -4.7130 C.ar    1  UNL1        0.1342
      5 C          56.7139   91.7850   -3.7667 C.ar    1  UNL1        0.0132
      6 C          55.5760   90.9602   -4.2913 C.ar    1  UNL1        0.0171
      7 C          57.0076   91.8084   -2.2960 C.3     1  UNL1        0.0330
      8 C          58.1454   92.6332   -1.7714 C.3     1  UNL1        0.0449
      9 C          58.9895   93.4345   -2.7177 C.3     1  UNL1        0.1367
     10 C          59.2832   93.4580   -1.2470 C.3     1  UNL1        0.0615
     11 C          60.4210   94.2827   -0.7225 C.3     1  UNL1        0.0970
     12 N          61.2651   95.0841   -1.6687 N.am    1  UNL1       -0.2790
     13 C          62.4029   95.9089   -1.1442 C.2     1  UNL1        0.2301
     14 O          63.2470   96.7102   -2.0904 O.2     1  UNL1       -0.2745
     15 C          60.9713   95.0607   -3.1395 C.3     1  UNL1        0.0970
     16 C          59.8336   94.2359   -3.6640 C.3     1  UNL1        0.0615
     17 O          58.6957   93.4111   -4.1885 O.3     1  UNL1       -0.4828
     18 C          53.0066   89.2871   -6.8110 C.3     1  UNL1        0.1816
     19 S          54.1445   90.1120   -6.2865 S.O2    1  UNL1        0.0104
     20 O          54.1586   90.9029   -7.5609 O.2     1  UNL1       -0.1686
     21 O          54.1304   89.3210   -5.0121 O.2     1  UNL1       -0.1686
     22 C          62.6967   95.9323    0.3266 C.3     1  UNL1        0.1124
     23 C          62.8978   94.6461    1.0718 C.ar    1  UNL1       -0.0024
     24 C          61.7560   94.0280    1.8229 C.ar    1  UNL1       -0.0021
     25 C          61.9572   92.7419    2.5681 C.ar    1  UNL1        0.0111
     26 C          63.3003   92.0739    2.5622 C.ar    1  UNL1        0.0585
     27 CL         63.5014   90.7877    3.3074 Cl      1  UNL1       -0.0822
     28 C          64.4421   92.6920    1.8111 C.ar    1  UNL1        0.0225
     29 C          64.2409   93.9781    1.0659 C.ar    1  UNL1        0.0550
     30 CL         65.3827   94.5963    0.3148 Cl      1  UNL1       -0.0825
@<TRIPOS>BOND
     1    18    19    1
     2    19    20    2
     3    19    21    2
     4    19     1    1
     5     1     2   ar
     6     2     3   ar
     7     3     4   ar
     8     4     5   ar
     9     5     6   ar
    10     5     7    1
    11     7     8    1
    12     8     9    1
    13     9    10    1
    14    10    11    1
    15    11    12    1
    16    12    13   am
    17    13    14    2
    18    13    22    1
    19    22    23    1
    20    23    24   ar
    21    24    25   ar
    22    25    26   ar
    23    26    27    1
    24    26    28   ar
    25    28    29   ar
    26    29    30    1
    27    12    15    1
    28    15    16    1
    29     9    17    1
    30     6     1   ar
    31    16     9    1
    32    17     4    1
    33    29    23   ar
@<TRIPOS>MOLECULE
*****
 30 33 0 0 0
SMALL
GASTEIGER

@<TRIPOS>ATOM
      1 C          62.8139   80.5114   11.8662 C.ar    1  UNL1        0.1056
      2 C          62.7040   80.4888   13.3620 C.ar    1  UNL1        0.0214
      3 C          62.8034   81.7670   14.1407 C.ar    1  UNL1        0.0379
      4 C          63.0127   83.0678   13.4236 C.ar    1  UNL1        0.1342
      5 C          63.1225   83.0904   11.9278 C.ar    1  UNL1        0.0132
      6 C          63.0231   81.8122   11.1491 C.ar    1  UNL1        0.0171
      7 C          63.3317   84.3911   11.2107 C.3     1  UNL1        0.0330
      8 C          63.4311   85.6694   11.9894 C.3     1  UNL1        0.0449
      9 C          63.3213   85.6468   13.4852 C.3     1  UNL1        0.1367
     10 C          63.5305   86.9475   12.7682 C.3     1  UNL1        0.0615
     11 C          63.6299   88.2256   13.5469 C.3     1  UNL1        0.0970
     12 N          63.5201   88.2030   15.0427 N.am    1  UNL1       -0.2790
     13 C          63.6195   89.4813   15.8214 C.2     1  UNL1        0.2301
     14 O          63.5097   89.4587   17.3172 O.2     1  UNL1       -0.2745
     15 C          63.3109   86.9023   15.7598 C.3     1  UNL1        0.0970
     16 C          63.2115   85.6242   14.9810 C.3     1  UNL1        0.0615
     17 O          63.1121   84.3459   14.2023 O.3     1  UNL1       -0.4828
     18 C          62.6151   77.9551   10.3088 C.3     1  UNL1        0.1816
     19 S          62.7145   79.2333   11.0875 S.O2    1  UNL1        0.0104
     20 O          62.9627   79.9889    9.8157 O.2     1  UNL1       -0.1686
     21 O          62.4663   78.4778   12.3593 O.2     1  UNL1       -0.1686
     22 C          63.8287   90.7820   15.1043 C.3     1  UNL1        0.1124
     23 C          65.1868   91.4188   15.0867 C.ar    1  UNL1       -0.0024
     24 C          66.1356   91.1309   13.9612 C.ar    1  UNL1       -0.0021
     25 C          67.4936   91.7676   13.9436 C.ar    1  UNL1        0.0111
     26 C          67.9028   92.6923   15.0516 C.ar    1  UNL1        0.0585
     27 CL         69.2609   93.3290   15.0340 Cl      1  UNL1       -0.0822
     28 C          66.9540   92.9802   16.1771 C.ar    1  UNL1        0.0225
     29 C          65.5960   92.3434   16.1946 C.ar    1  UNL1        0.0550
     30 CL         64.6471   92.6313   17.3202 Cl      1  UNL1       -0.0825
@<TRIPOS>BOND
     1    18    19    1
     2    19    20    2
     3    19    21    2
     4    19     1    1
     5     1     2   ar
     6     2     3   ar
     7     3     4   ar
     8     4     5   ar
     9     5     6   ar
    10     5     7    1
    11     7     8    1
    12     8     9    1
    13     9    10    1
    14    10    11    1
    15    11    12    1
    16    12    13   am
    17    13    14    2
    18    13    22    1
    19    22    23    1
    20    23    24   ar
    21    24    25   ar
    22    25    26   ar
    23    26    27    1
    24    26    28   ar
    25    28    29   ar
    26    29    30    1
    27    12    15    1
    28    15    16    1
    29     9    17    1
    30     6     1   ar
    31    16     9    1
    32    17     4    1
    33    29    23   ar
@<TRIPOS>MOLECULE
*****
 30 33 0 0 0
SMALL
GASTEIGER

@<TRIPOS>ATOM
      1 C          59.0230   89.7380    6.5414 C.ar    1  UNL1        0.1056
      2 C          58.7759   88.2662    6.3905 C.ar    1  UNL1        0.0214
      3 C          59.3796   87.3004    7.3666 C.ar    1  UNL1        0.0379
      4 C          60.2305   87.8064    8.4937 C.ar    1  UNL1        0.1342
      5 C          60.4775   89.2782    8.6445 C.ar    1  UNL1        0.0132
      6 C          59.8738   90.2440    7.6684 C.ar    1  UNL1        0.0171
      7 C          61.3283   89.7843    9.7715 C.3     1  UNL1        0.0330
      8 C          61.9320   88.8185   10.7477 C.3     1  UNL1        0.0449
      9 C          61.6850   87.3467   10.5968 C.3     1  UNL1        0.1367
     10 C          62.5357   87.8527   11.7238 C.3     1  UNL1        0.0615
     11 C          63.1394   86.8870   12.6998 C.3     1  UNL1        0.0970
     12 N          62.8924   85.4152   12.5490 N.am    1  UNL1       -0.2790
     13 C          63.4961   84.4494   13.5252 C.2     1  UNL1        0.2301
     14 O          63.2490   82.9776   13.3743 O.2     1  UNL1       -0.2745
     15 C          62.0416   84.9091   11.4220 C.3     1  UNL1        0.0970
     16 C          61.4379   85.8749   10.4459 C.3     1  UNL1        0.0615
     17 O          60.8342   86.8407    9.4698 O.3     1  UNL1       -0.4828
     18 C          57.8155   91.6696    4.5892 C.3     1  UNL1        0.1816
     19 S          58.4193   90.7037    5.5653 S.O2    1  UNL1        0.0104
     20 O          59.7917   91.1635    5.1715 O.2     1  UNL1       -0.1686
     21 O          57.0470   90.2440    5.9592 O.2     1  UNL1       -0.1686
     22 C          64.3469   84.9554   14.6521 C.3     1  UNL1        0.1124
     23 C          64.0985   86.3191   15.2256 C.ar    1  UNL1       -0.0024
     24 C          64.7124   87.5267   14.5817 C.ar    1  UNL1       -0.0021
     25 C          64.4639   88.8903   15.1552 C.ar    1  UNL1        0.0111
     26 C          63.6017   89.0462   16.3726 C.ar    1  UNL1        0.0585
     27 CL         63.3533   90.4099   16.9461 Cl      1  UNL1       -0.0822
     28 C          62.9878   87.8386   17.0165 C.ar    1  UNL1        0.0225
     29 C          63.2362   86.4750   16.4430 C.ar    1  UNL1        0.0550
     30 CL         62.6223   85.2673   17.0870 Cl      1  UNL1       -0.0825
@<TRIPOS>BOND
     1    18    19    1
     2    19    20    2
     3    19    21    2
     4    19     1    1
     5     1     2   ar
     6     2     3   ar
     7     3     4   ar
     8     4     5   ar
     9     5     6   ar
    10     5     7    1
    11     7     8    1
    12     8     9    1
    13     9    10    1
    14    10    11    1
    15    11    12    1
    16    12    13   am
    17    13    14    2
    18    13    22    1
    19    22    23    1
    20    23    24   ar
    21    24    25   ar
    22    25    26   ar
    23    26    27    1
    24    26    28   ar
    25    28    29   ar
    26    29    30    1
    27    12    15    1
    28    15    16    1
    29     9    17    1
    30     6     1   ar
    31    16     9    1
    32    17     4    1
    33    29    23   ar
