@<TRIPOS>MOLECULE
*****
 38 41 0 0 0
SMALL
GASTEIGER

@<TRIPOS>ATOM
      1 C          64.2737   89.9830   13.8100 C.2     1  UNL1        0.2522
      2 O          64.3365   90.4228   15.2426 O.2     1  UNL1       -0.2699
      3 N          64.6085   90.9500   12.7132 N.am    1  UNL1       -0.2981
      4 H          64.5672   90.6614   11.7729 H       1  UNL1        0.1498
      5 C          63.1004   83.2251   13.3586 C.ar    1  UNL1        0.0509
      6 C          63.9155   83.5009   14.5872 C.ar    1  UNL1        0.0147
      7 C          64.3132   84.9077   14.9232 C.ar    1  UNL1        0.0043
      8 C          63.8957   86.0386   14.0306 C.ar    1  UNL1        0.0351
      9 C          64.2934   87.4453   14.3666 C.ar    1  UNL1        0.0141
     10 C          63.8760   88.5762   13.4740 C.ar    1  UNL1        0.1293
     11 C          63.0608   88.3004   12.2453 C.ar    1  UNL1        0.3502
     12 O          62.6434   89.4313   11.3527 O.2     1  UNL1       -0.2443
     13 O          62.6632   86.8936   11.9093 O.2     1  UNL1       -0.4209
     14 C          63.0807   85.7627   12.8020 C.ar    1  UNL1        0.1499
     15 C          62.6830   84.3560   12.4660 C.ar    1  UNL1        0.0521
     16 N          62.7027   81.8183   13.0226 N.pl3   1  UNL1       -0.3074
     17 C          60.6124   80.7212   14.1074 C.3     1  UNL1        0.0232
     18 C          62.0962   80.9386   14.0753 C.3     1  UNL1        0.0908
     19 C          62.9116   81.2912   11.6339 C.3     1  UNL1        0.0908
     20 C          63.8332   82.0064   10.6910 C.3     1  UNL1        0.0232
     21 C          65.0062   92.3568   13.0492 C.3     1  UNL1        0.1229
     22 C          65.5933   93.2432   11.9912 C.3     1  UNL1        0.1477
     23 O          64.8068   92.5132   10.9431 O.3     1  UNL1       -0.3790
     24 H          64.2793   91.8154   11.3623 H       1  UNL1        0.2108
     25 C          66.1805   94.1297   10.9331 C.ar    1  UNL1        0.0328
     26 C          65.7358   95.5577   10.8195 C.ar    1  UNL1        0.0026
     27 C          66.3230   96.4441    9.7615 C.ar    1  UNL1        0.0295
     28 C          67.3549   95.9025    8.8171 C.ar    1  UNL1        0.1424
     29 F          67.9421   96.7890    7.7591 F       1  UNL1       -0.2041
     30 C          67.7996   94.4745    8.9307 C.ar    1  UNL1        0.0590
     31 C          67.2124   93.5881    9.9887 C.ar    1  UNL1        0.1406
     32 F          67.6571   92.1600   10.1024 F       1  UNL1       -0.2043
     33 C          66.3798   93.9732   13.0392 C.3     1  UNL1        0.1403
     34 N          67.2063   93.2049   14.0275 N.ar    1  UNL1       -0.3050
     35 C          67.2790   93.4608   15.5038 C.ar    1  UNL1        0.0981
     36 C          68.2228   92.4598   16.1017 C.ar    1  UNL1        0.1193
     37 N          68.7333   91.5854   14.9950 N.ar    1  UNL1       -0.2223
     38 C          68.1051   92.0459   13.7131 C.ar    1  UNL1        0.1787
@<TRIPOS>BOND
     1    17    18    1
     2    18    16    1
     3    16    19    1
     4    19    20    1
     5    16     5    1
     6     5     6   ar
     7     6     7   ar
     8     7     8   ar
     9     8     9   ar
    10     9    10   ar
    11    10     1    1
    12     1     2    2
    13     1     3   am
    14     3    21    1
    15    21    22    1
    16    22    23    1
    17    22    33    1
    18    33    34    1
    19    34    35   ar
    20    35    36   ar
    21    36    37   ar
    22    37    38   ar
    23    22    25    1
    24    25    26   ar
    25    26    27   ar
    26    27    28   ar
    27    28    29    1
    28    28    30   ar
    29    30    31   ar
    30    31    32    1
    31    10    11   ar
    32    11    12    2
    33    11    13   ar
    34    13    14   ar
    35    14    15   ar
    36    15     5   ar
    37    14     8   ar
    38    38    34   ar
    39    31    25   ar
    40     3     4    1
    41    23    24    1
@<TRIPOS>MOLECULE
*****
 38 41 0 0 0
SMALL
GASTEIGER

@<TRIPOS>ATOM
      1 C          59.4464   89.5400    6.9677 C.2     1  UNL1        0.2522
      2 O          58.5267   88.3565    6.9075 O.2     1  UNL1       -0.2699
      3 N          60.2377   89.8122    8.2126 N.am    1  UNL1       -0.2981
      4 H          60.8414   90.5890    8.2522 H       1  UNL1        0.1498
      5 C          61.3049   93.4264    1.6113 C.ar    1  UNL1        0.0509
      6 C          62.5217   92.7569    2.1779 C.ar    1  UNL1        0.0147
      7 C          62.3934   91.8457    3.3624 C.ar    1  UNL1        0.0043
      8 C          61.0482   91.6040    3.9805 C.ar    1  UNL1        0.0351
      9 C          60.9199   90.6928    5.1651 C.ar    1  UNL1        0.0141
     10 C          59.5747   90.4512    5.7832 C.ar    1  UNL1        0.1293
     11 C          58.3578   91.1207    5.2166 C.ar    1  UNL1        0.3502
     12 O          57.0126   90.8790    5.8347 O.2     1  UNL1       -0.2443
     13 O          58.4861   92.0319    4.0320 O.2     1  UNL1       -0.4209
     14 C          59.8314   92.2736    3.4140 C.ar    1  UNL1        0.1499
     15 C          59.9597   93.1848    2.2294 C.ar    1  UNL1        0.0521
     16 N          61.4332   94.3376    0.4267 N.pl3   1  UNL1       -0.3074
     17 C          62.0952   93.3561   -1.8859 C.3     1  UNL1        0.0232
     18 C          61.0439   93.8526   -0.9382 C.3     1  UNL1        0.0908
     19 C          61.9510   95.7338    0.6071 C.3     1  UNL1        0.0908
     20 C          61.4502   96.5788    1.7408 C.3     1  UNL1        0.0232
     21 C          60.1094   88.9011    9.3972 C.3     1  UNL1        0.1229
     22 C          60.9575   87.6674    9.4898 C.3     1  UNL1        0.1477
     23 O          59.7204   86.8215    9.5522 O.3     1  UNL1       -0.3790
     24 H          58.9366   87.3914    9.5092 H       1  UNL1        0.2108
     25 C          61.8058   86.4336    9.5825 C.ar    1  UNL1        0.0328
     26 C          62.5693   85.9566    8.3827 C.ar    1  UNL1        0.0026
     27 C          63.4175   84.7230    8.4754 C.ar    1  UNL1        0.0295
     28 C          63.5021   83.9663    9.7678 C.ar    1  UNL1        0.1424
     29 F          64.3504   82.7326    9.8604 F       1  UNL1       -0.2041
     30 C          62.7386   84.4433   10.9676 C.ar    1  UNL1        0.0590
     31 C          61.8904   85.6770   10.8749 C.ar    1  UNL1        0.1406
     32 F          61.1268   86.1541   12.0747 F       1  UNL1       -0.2043
     33 C          62.1947   88.5132    9.4275 C.3     1  UNL1        0.1403
     34 N          62.6109   89.3225   10.6199 N.ar    1  UNL1       -0.3050
     35 C          62.8250   88.7992   12.0094 C.ar    1  UNL1        0.0981
     36 C          63.2325   89.9504   12.8805 C.ar    1  UNL1        0.1193
     37 N          63.2701   91.1851   12.0295 N.ar    1  UNL1       -0.2223
     38 C          62.8859   90.7970   10.6324 C.ar    1  UNL1        0.1787
@<TRIPOS>BOND
     1    17    18    1
     2    18    16    1
     3    16    19    1
     4    19    20    1
     5    16     5    1
     6     5     6   ar
     7     6     7   ar
     8     7     8   ar
     9     8     9   ar
    10     9    10   ar
    11    10     1    1
    12     1     2    2
    13     1     3   am
    14     3    21    1
    15    21    22    1
    16    22    23    1
    17    22    33    1
    18    33    34    1
    19    34    35   ar
    20    35    36   ar
    21    36    37   ar
    22    37    38   ar
    23    22    25    1
    24    25    26   ar
    25    26    27   ar
    26    27    28   ar
    27    28    29    1
    28    28    30   ar
    29    30    31   ar
    30    31    32    1
    31    10    11   ar
    32    11    12    2
    33    11    13   ar
    34    13    14   ar
    35    14    15   ar
    36    15     5   ar
    37    14     8   ar
    38    38    34   ar
    39    31    25   ar
    40     3     4    1
    41    23    24    1
@<TRIPOS>MOLECULE
*****
 38 41 0 0 0
SMALL
GASTEIGER

@<TRIPOS>ATOM
      1 C          63.3856   89.4823   12.8217 C.2     1  UNL1        0.2522
      2 O          62.7392   90.0544   14.0484 O.2     1  UNL1       -0.2699
      3 N          64.2499   90.3499   11.9554 N.am    1  UNL1       -0.2981
      4 H          64.6742   89.9744   11.1503 H       1  UNL1        0.1498
      5 C          63.0944   82.6395   12.2382 C.ar    1  UNL1        0.0509
      6 C          63.8928   82.9948   13.4573 C.ar    1  UNL1        0.0147
      7 C          64.1107   84.4344   13.8179 C.ar    1  UNL1        0.0043
      8 C          63.5302   85.5187   12.9593 C.ar    1  UNL1        0.0351
      9 C          63.7481   86.9584   13.3198 C.ar    1  UNL1        0.0141
     10 C          63.1677   88.0427   12.4612 C.ar    1  UNL1        0.1293
     11 C          62.3692   87.6874   11.2420 C.ar    1  UNL1        0.3502
     12 O          61.7888   88.7717   10.3834 O.2     1  UNL1       -0.2443
     13 O          62.1513   86.2478   10.8814 O.2     1  UNL1       -0.4209
     14 C          62.7318   85.1634   11.7401 C.ar    1  UNL1        0.1499
     15 C          62.5139   83.7238   11.3796 C.ar    1  UNL1        0.0521
     16 N          62.8765   81.1998   11.8777 N.pl3   1  UNL1       -0.3074
     17 C          61.3397   80.6556   13.9006 C.3     1  UNL1        0.0232
     18 C          62.3883   80.2325   12.9150 C.3     1  UNL1        0.0908
     19 C          63.1467   80.7275   10.4799 C.3     1  UNL1        0.0908
     20 C          62.7872   79.3276   10.0786 C.3     1  UNL1        0.0232
     21 C          64.4678   91.7895   12.3160 C.3     1  UNL1        0.1229
     22 C          65.6343   92.1794   13.1746 C.3     1  UNL1        0.1477
     23 O          65.5843   90.8411   13.8502 O.3     1  UNL1       -0.3790
     24 H          64.8623   90.3149   13.4723 H       1  UNL1        0.2108
     25 C          66.8008   92.5693   14.0332 C.ar    1  UNL1        0.0328
     26 C          66.5929   93.4621   15.2205 C.ar    1  UNL1        0.0026
     27 C          67.7594   93.8520   16.0791 C.ar    1  UNL1        0.0295
     28 C          69.1338   93.3491   15.7504 C.ar    1  UNL1        0.1424
     29 F          70.3004   93.7390   16.6091 F       1  UNL1       -0.2041
     30 C          69.3418   92.4562   14.5632 C.ar    1  UNL1        0.0590
     31 C          68.1753   92.0664   13.7046 C.ar    1  UNL1        0.1406
     32 F          68.3831   91.1735   12.5173 F       1  UNL1       -0.2043
     33 C          65.6843   93.5176   12.4990 C.3     1  UNL1        0.1403
     34 N          66.4617   93.6873   11.2274 N.ar    1  UNL1       -0.3050
     35 C          66.8480   94.9928   10.5976 C.ar    1  UNL1        0.0981
     36 C          67.6143   94.6935    9.3433 C.ar    1  UNL1        0.1193
     37 N          67.7015   93.2031    9.1978 N.ar    1  UNL1       -0.2223
     38 C          66.9891   92.5812   10.3622 C.ar    1  UNL1        0.1787
@<TRIPOS>BOND
     1    17    18    1
     2    18    16    1
     3    16    19    1
     4    19    20    1
     5    16     5    1
     6     5     6   ar
     7     6     7   ar
     8     7     8   ar
     9     8     9   ar
    10     9    10   ar
    11    10     1    1
    12     1     2    2
    13     1     3   am
    14     3    21    1
    15    21    22    1
    16    22    23    1
    17    22    33    1
    18    33    34    1
    19    34    35   ar
    20    35    36   ar
    21    36    37   ar
    22    37    38   ar
    23    22    25    1
    24    25    26   ar
    25    26    27   ar
    26    27    28   ar
    27    28    29    1
    28    28    30   ar
    29    30    31   ar
    30    31    32    1
    31    10    11   ar
    32    11    12    2
    33    11    13   ar
    34    13    14   ar
    35    14    15   ar
    36    15     5   ar
    37    14     8   ar
    38    38    34   ar
    39    31    25   ar
    40     3     4    1
    41    23    24    1
@<TRIPOS>MOLECULE
*****
 38 41 0 0 0
SMALL
GASTEIGER

@<TRIPOS>ATOM
      1 C          58.9910   89.7386    6.2968 C.2     1  UNL1        0.2522
      2 O          57.5257   89.4802    6.4871 O.2     1  UNL1       -0.2699
      3 N          59.9969   89.0036    7.1323 N.am    1  UNL1       -0.2981
      4 H          60.9586   89.1731    7.0075 H       1  UNL1        0.1498
      5 C          62.2514   93.6960    1.7188 C.ar    1  UNL1        0.0509
      6 C          63.2146   92.6866    2.2694 C.ar    1  UNL1        0.0147
      7 C          62.7552   91.6932    3.2952 C.ar    1  UNL1        0.0043
      8 C          61.3325   91.7093    3.7703 C.ar    1  UNL1        0.0351
      9 C          60.8731   90.7159    4.7960 C.ar    1  UNL1        0.0141
     10 C          59.4504   90.7319    5.2711 C.ar    1  UNL1        0.1293
     11 C          58.4871   91.7414    4.7204 C.ar    1  UNL1        0.3502
     12 O          57.0645   91.7574    5.1955 O.2     1  UNL1       -0.2443
     13 O          58.9466   92.7347    3.6946 O.2     1  UNL1       -0.4209
     14 C          60.3693   92.7186    3.2196 C.ar    1  UNL1        0.1499
     15 C          60.8288   93.7120    2.1938 C.ar    1  UNL1        0.0521
     16 N          62.7109   94.6893    0.6930 N.pl3   1  UNL1       -0.3074
     17 C          61.8588   93.1396   -1.2102 C.3     1  UNL1        0.0232
     18 C          62.6055   94.3627   -0.7672 C.3     1  UNL1        0.0908
     19 C          63.2756   96.0092    1.1275 C.3     1  UNL1        0.0908
     20 C          64.4823   96.0523    2.0174 C.3     1  UNL1        0.0232
     21 C          59.5374   88.0102    8.1581 C.3     1  UNL1        0.1229
     22 C          60.5156   87.0433    8.7566 C.3     1  UNL1        0.1477
     23 O          59.8558   85.9178    8.0165 O.3     1  UNL1       -0.3790
     24 H          59.1172   86.2647    7.4920 H       1  UNL1        0.2108
     25 C          61.4938   86.0764    9.3551 C.ar    1  UNL1        0.0328
     26 C          61.5154   85.8528   10.8382 C.ar    1  UNL1        0.0026
     27 C          62.4936   84.8859   11.4367 C.ar    1  UNL1        0.0295
     28 C          63.4502   84.1426   10.5521 C.ar    1  UNL1        0.1424
     29 F          64.4284   83.1756   11.1506 F       1  UNL1       -0.2041
     30 C          63.4285   84.3661    9.0690 C.ar    1  UNL1        0.0590
     31 C          62.4504   85.3330    8.4706 C.ar    1  UNL1        0.1406
     32 F          62.4287   85.5567    6.9874 F       1  UNL1       -0.2043
     33 C          61.1754   88.1688    9.4967 C.3     1  UNL1        0.1403
     34 N          60.3799   89.0040   10.4558 N.ar    1  UNL1       -0.3050
     35 C          59.6860   88.5090   11.6902 C.ar    1  UNL1        0.0981
     36 C          59.0160   89.6799   12.3462 C.ar    1  UNL1        0.1193
     37 N          59.2958   90.8983   11.5173 N.ar    1  UNL1       -0.2223
     38 C          60.1388   90.4806   10.3490 C.ar    1  UNL1        0.1787
@<TRIPOS>BOND
     1    17    18    1
     2    18    16    1
     3    16    19    1
     4    19    20    1
     5    16     5    1
     6     5     6   ar
     7     6     7   ar
     8     7     8   ar
     9     8     9   ar
    10     9    10   ar
    11    10     1    1
    12     1     2    2
    13     1     3   am
    14     3    21    1
    15    21    22    1
    16    22    23    1
    17    22    33    1
    18    33    34    1
    19    34    35   ar
    20    35    36   ar
    21    36    37   ar
    22    37    38   ar
    23    22    25    1
    24    25    26   ar
    25    26    27   ar
    26    27    28   ar
    27    28    29    1
    28    28    30   ar
    29    30    31   ar
    30    31    32    1
    31    10    11   ar
    32    11    12    2
    33    11    13   ar
    34    13    14   ar
    35    14    15   ar
    36    15     5   ar
    37    14     8   ar
    38    38    34   ar
    39    31    25   ar
    40     3     4    1
    41    23    24    1
