@<TRIPOS>MOLECULE
*****
 34 38 0 0 0
SMALL
GASTEIGER

@<TRIPOS>ATOM
      1 N          64.2753   90.4906   13.1030 N.ar    1  UNL1       -0.2754
      2 C          64.6615   90.0172   14.4729 C.ar    1  UNL1        0.1515
      3 N          65.6768   90.9735   15.0247 N.ar    1  UNL1       -0.2248
      4 C          65.9181   92.0380   13.9958 C.ar    1  UNL1        0.1173
      5 C          66.8147   93.2405   13.9869 C.ar    1  UNL1        0.0238
      6 C          66.8451   94.1445   12.7903 C.ar    1  UNL1        0.0208
      7 C          65.9788   93.8461   11.6027 C.ar    1  UNL1        0.0830
      8 N          65.0823   92.6436   11.6115 N.ar    1  UNL1       -0.2264
      9 C          65.0519   91.7396   12.8081 C.ar    1  UNL1        0.1665
     10 C          64.1263   88.8009   15.1689 C.ar    1  UNL1        0.0657
     11 C          64.5100   87.4326   14.6891 C.ar    1  UNL1        0.0074
     12 C          63.9748   86.2163   15.3851 C.ar    1  UNL1        0.0209
     13 C          63.0559   86.3685   16.5608 C.ar    1  UNL1        0.1003
     14 N          62.6722   87.7369   17.0406 N.ar    1  UNL1       -0.2295
     15 C          63.2074   88.9531   16.3447 C.ar    1  UNL1        0.1282
     16 N          62.8237   90.3216   16.8245 N.pl3   1  UNL1       -0.3425
     17 H          62.2206   90.4214   17.5962 H       1  UNL1        0.1437
     18 H          63.1749   91.1198   16.3677 H       1  UNL1        0.1437
     19 C          61.3076   88.5115   10.3595 C.ar    1  UNL1       -0.0065
     20 C          61.3722   90.0079   10.4404 C.ar    1  UNL1       -0.0014
     21 C          62.3614   90.6676   11.3549 C.ar    1  UNL1        0.0173
     22 C          63.2860   89.8310   12.1885 C.ar    1  UNL1        0.0667
     23 C          63.2215   88.3344   12.1076 C.ar    1  UNL1        0.0173
     24 C          62.2322   87.6748   11.1931 C.ar    1  UNL1       -0.0014
     25 N          59.8813   88.5442    8.1882 N.3     1  UNL1       -0.3175
     26 C          60.3184   87.8519    9.4450 C.3     1  UNL1        0.0922
     27 H          59.2117   87.9565    7.6916 H       1  UNL1        0.1192
     28 H          60.6925   88.7129    7.5933 H       1  UNL1        0.1192
     29 C          66.0092   94.7502   10.4061 C.ar    1  UNL1        0.0177
     30 C          65.1133   95.9519   10.3511 C.ar    1  UNL1        0.0015
     31 C          65.1436   96.8560    9.1545 C.ar    1  UNL1        0.0000
     32 C          66.0700   96.5583    8.0129 C.ar    1  UNL1        0.0000
     33 C          66.9660   95.3565    8.0680 C.ar    1  UNL1        0.0000
     34 C          66.9356   94.4525    9.2645 C.ar    1  UNL1        0.0015
@<TRIPOS>BOND
     1    25    26    1
     2    26    19    1
     3    19    20   ar
     4    20    21   ar
     5    21    22   ar
     6    22     1    1
     7     1     2   ar
     8     2    10    1
     9    10    11   ar
    10    11    12   ar
    11    12    13   ar
    12    13    14   ar
    13    14    15   ar
    14    15    16    1
    15     2     3   ar
    16     3     4   ar
    17     4     5   ar
    18     5     6   ar
    19     6     7   ar
    20     7    29    1
    21    29    30   ar
    22    30    31   ar
    23    31    32   ar
    24    32    33   ar
    25    33    34   ar
    26     7     8   ar
    27     8     9   ar
    28    22    23   ar
    29    23    24   ar
    30    24    19   ar
    31     9     1   ar
    32    15    10   ar
    33     9     4   ar
    34    34    29   ar
    35    25    27    1
    36    25    28    1
    37    16    17    1
    38    16    18    1
@<TRIPOS>MOLECULE
*****
 34 38 0 0 0
SMALL
GASTEIGER

@<TRIPOS>ATOM
      1 N          64.2142   90.3503   13.1909 N.ar    1  UNL1       -0.2754
      2 C          65.1429   91.5273   13.2369 C.ar    1  UNL1        0.1515
      3 N          65.0363   92.2533   11.9287 N.ar    1  UNL1       -0.2248
      4 C          64.0416   91.5251   11.0741 C.ar    1  UNL1        0.1173
      5 C          63.5329   91.7810    9.6865 C.ar    1  UNL1        0.0238
      6 C          62.5161   90.8608    9.0789 C.ar    1  UNL1        0.0208
      7 C          62.0080   89.6846    9.8590 C.ar    1  UNL1        0.0830
      8 N          62.5167   89.4287   11.2466 N.ar    1  UNL1       -0.2264
      9 C          63.5335   90.3490   11.8542 C.ar    1  UNL1        0.1665
     10 C          66.0237   91.9109   14.3889 C.ar    1  UNL1        0.0657
     11 C          65.4165   92.2371   15.7211 C.ar    1  UNL1        0.0074
     12 C          66.2973   92.6207   16.8731 C.ar    1  UNL1        0.0209
     13 C          67.7853   92.6780   16.6929 C.ar    1  UNL1        0.1003
     14 N          68.3925   92.3518   15.3607 N.ar    1  UNL1       -0.2295
     15 C          67.5117   91.9682   14.2087 C.ar    1  UNL1        0.1282
     16 N          68.1190   91.6420   12.8765 N.pl3   1  UNL1       -0.3425
     17 H          69.0957   91.6796   12.7582 H       1  UNL1        0.1437
     18 H          67.5409   91.3902   12.1204 H       1  UNL1        0.1437
     19 C          63.5809   87.3502   16.4846 C.ar    1  UNL1       -0.0065
     20 C          64.2138   86.9238   15.1932 C.ar    1  UNL1       -0.0014
     21 C          64.4249   87.9239   14.0953 C.ar    1  UNL1        0.0173
     22 C          64.0031   89.3503   14.2888 C.ar    1  UNL1        0.0667
     23 C          63.3702   89.7766   15.5802 C.ar    1  UNL1        0.0173
     24 C          63.1591   88.7765   16.6781 C.ar    1  UNL1       -0.0014
     25 N          61.9784   85.9889   18.0106 N.3     1  UNL1       -0.3175
     26 C          63.3699   86.3501   17.5825 C.3     1  UNL1        0.0922
     27 H          62.0218   85.3004   18.7620 H       1  UNL1        0.1192
     28 H          61.4701   85.5960   17.2184 H       1  UNL1        0.1192
     29 C          60.9911   88.7643    9.2513 C.ar    1  UNL1        0.0177
     30 C          59.9855   89.2979    8.2746 C.ar    1  UNL1        0.0015
     31 C          58.9686   88.3777    7.6670 C.ar    1  UNL1        0.0000
     32 C          58.9575   86.9238    8.0360 C.ar    1  UNL1        0.0000
     33 C          59.9632   86.3902    9.0127 C.ar    1  UNL1        0.0000
     34 C          60.9800   87.3105    9.6203 C.ar    1  UNL1        0.0015
@<TRIPOS>BOND
     1    25    26    1
     2    26    19    1
     3    19    20   ar
     4    20    21   ar
     5    21    22   ar
     6    22     1    1
     7     1     2   ar
     8     2    10    1
     9    10    11   ar
    10    11    12   ar
    11    12    13   ar
    12    13    14   ar
    13    14    15   ar
    14    15    16    1
    15     2     3   ar
    16     3     4   ar
    17     4     5   ar
    18     5     6   ar
    19     6     7   ar
    20     7    29    1
    21    29    30   ar
    22    30    31   ar
    23    31    32   ar
    24    32    33   ar
    25    33    34   ar
    26     7     8   ar
    27     8     9   ar
    28    22    23   ar
    29    23    24   ar
    30    24    19   ar
    31     9     1   ar
    32    15    10   ar
    33     9     4   ar
    34    34    29   ar
    35    25    27    1
    36    25    28    1
    37    16    17    1
    38    16    18    1
@<TRIPOS>MOLECULE
*****
 34 38 0 0 0
SMALL
GASTEIGER

@<TRIPOS>ATOM
      1 N          65.4268   91.4981   12.5867 N.ar    1  UNL1       -0.2754
      2 C          65.9184   91.3382   13.9948 C.ar    1  UNL1        0.1515
      3 N          65.1170   90.2494   14.6447 N.ar    1  UNL1       -0.2248
      4 C          64.1302   89.7363   13.6382 C.ar    1  UNL1        0.1173
      5 C          63.0820   88.6661   13.7156 C.ar    1  UNL1        0.0238
      6 C          62.2253   88.3677   12.5211 C.ar    1  UNL1        0.0208
      7 C          62.4167   89.1395   11.2492 C.ar    1  UNL1        0.0830
      8 N          63.4649   90.2097   11.1718 N.ar    1  UNL1       -0.2264
      9 C          64.3216   90.5081   12.3663 C.ar    1  UNL1        0.1665
     10 C          67.0182   92.1284   14.6398 C.ar    1  UNL1        0.0657
     11 C          68.3832   92.1591   14.0188 C.ar    1  UNL1        0.0074
     12 C          69.4830   92.9493   14.6638 C.ar    1  UNL1        0.0209
     13 C          69.2178   93.7087   15.9298 C.ar    1  UNL1        0.1003
     14 N          67.8528   93.6780   16.5508 N.ar    1  UNL1       -0.2295
     15 C          66.7530   92.8878   15.9058 C.ar    1  UNL1        0.1282
     16 N          65.3879   92.8571   16.5269 N.pl3   1  UNL1       -0.3425
     17 H          65.2139   93.3556   17.3579 H       1  UNL1        0.1437
     18 H          64.6661   92.3385   16.1036 H       1  UNL1        0.1437
     19 C          66.9924   94.4327    9.5557 C.ar    1  UNL1       -0.0065
     20 C          67.5768   93.0535    9.6358 C.ar    1  UNL1       -0.0014
     21 C          67.0549   92.0753   10.6462 C.ar    1  UNL1        0.0173
     22 C          65.9486   92.4762   11.5764 C.ar    1  UNL1        0.0667
     23 C          65.3642   93.8555   11.4963 C.ar    1  UNL1        0.0173
     24 C          65.8861   94.8336   10.4859 C.ar    1  UNL1       -0.0014
     25 N          67.6748   96.8559    8.9138 N.3     1  UNL1       -0.3175
     26 C          67.5143   95.4108    8.5453 C.3     1  UNL1        0.0922
     27 H          68.0381   97.3727    8.1130 H       1  UNL1        0.1192
     28 H          68.3259   96.9373    9.6948 H       1  UNL1        0.1192
     29 C          61.5599   88.8410   10.0547 C.ar    1  UNL1        0.0177
     30 C          60.7481   89.9324    9.4225 C.ar    1  UNL1        0.0015
     31 C          59.8913   89.6340    8.2279 C.ar    1  UNL1        0.0000
     32 C          59.8463   88.2441    7.6657 C.ar    1  UNL1        0.0000
     33 C          60.6582   87.1526    8.2980 C.ar    1  UNL1        0.0000
     34 C          61.5149   87.4511    9.4924 C.ar    1  UNL1        0.0015
@<TRIPOS>BOND
     1    25    26    1
     2    26    19    1
     3    19    20   ar
     4    20    21   ar
     5    21    22   ar
     6    22     1    1
     7     1     2   ar
     8     2    10    1
     9    10    11   ar
    10    11    12   ar
    11    12    13   ar
    12    13    14   ar
    13    14    15   ar
    14    15    16    1
    15     2     3   ar
    16     3     4   ar
    17     4     5   ar
    18     5     6   ar
    19     6     7   ar
    20     7    29    1
    21    29    30   ar
    22    30    31   ar
    23    31    32   ar
    24    32    33   ar
    25    33    34   ar
    26     7     8   ar
    27     8     9   ar
    28    22    23   ar
    29    23    24   ar
    30    24    19   ar
    31     9     1   ar
    32    15    10   ar
    33     9     4   ar
    34    34    29   ar
    35    25    27    1
    36    25    28    1
    37    16    17    1
    38    16    18    1
@<TRIPOS>MOLECULE
*****
 34 38 0 0 0
SMALL
GASTEIGER

@<TRIPOS>ATOM
      1 N          62.8133   86.9487   12.2741 N.ar    1  UNL1       -0.2754
      2 C          63.5973   88.0801   12.8703 C.ar    1  UNL1        0.1515
      3 N          64.3211   87.5577   14.0758 N.ar    1  UNL1       -0.2248
      4 C          63.9846   86.1035   14.2246 C.ar    1  UNL1        0.1173
      5 C          64.4062   85.0735   15.2302 C.ar    1  UNL1        0.0238
      6 C          63.8960   83.6671   15.1222 C.ar    1  UNL1        0.0208
      7 C          62.9642   83.2907   14.0087 C.ar    1  UNL1        0.0830
      8 N          62.5425   84.3207   13.0031 N.ar    1  UNL1       -0.2264
      9 C          63.0527   85.7271   13.1111 C.ar    1  UNL1        0.1665
     10 C          63.6484   89.4867   12.3520 C.ar    1  UNL1        0.0657
     11 C          63.1605   89.7941   10.9673 C.ar    1  UNL1        0.0074
     12 C          63.2116   91.2008   10.4491 C.ar    1  UNL1        0.0209
     13 C          63.7506   92.3001   11.3155 C.ar    1  UNL1        0.1003
     14 N          64.2386   91.9928   12.7002 N.ar    1  UNL1       -0.2295
     15 C          64.1875   90.5861   13.2185 C.ar    1  UNL1        0.1282
     16 N          64.6754   90.2788   14.6032 N.pl3   1  UNL1       -0.3425
     17 H          65.0292   91.0004   15.1719 H       1  UNL1        0.1437
     18 H          64.6419   89.3556   14.9434 H       1  UNL1        0.1437
     19 C          60.2018   87.1788    8.6166 C.ar    1  UNL1       -0.0065
     20 C          61.4939   86.4185    8.5689 C.ar    1  UNL1       -0.0014
     21 C          62.3644   86.3418    9.7881 C.ar    1  UNL1        0.0173
     22 C          61.9429   87.0254   11.0549 C.ar    1  UNL1        0.0667
     23 C          60.6506   87.7857   11.1026 C.ar    1  UNL1        0.0173
     24 C          59.7801   87.8624    9.8834 C.ar    1  UNL1       -0.0014
     25 N          58.6096   88.5291    7.0701 N.3     1  UNL1       -0.3175
     26 C          59.3313   87.2555    7.3974 C.3     1  UNL1        0.0922
     27 H          58.0687   88.4031    6.2145 H       1  UNL1        0.1192
     28 H          59.2875   89.2794    6.9364 H       1  UNL1        0.1192
     29 C          62.4540   81.8843   13.9008 C.ar    1  UNL1        0.0177
     30 C          61.0391   81.5681   14.2857 C.ar    1  UNL1        0.0015
     31 C          60.5289   80.1616   14.1778 C.ar    1  UNL1        0.0000
     32 C          61.4336   79.0714   13.6850 C.ar    1  UNL1        0.0000
     33 C          62.8485   79.3876   13.3000 C.ar    1  UNL1        0.0000
     34 C          63.3586   80.7940   13.4079 C.ar    1  UNL1        0.0015
@<TRIPOS>BOND
     1    25    26    1
     2    26    19    1
     3    19    20   ar
     4    20    21   ar
     5    21    22   ar
     6    22     1    1
     7     1     2   ar
     8     2    10    1
     9    10    11   ar
    10    11    12   ar
    11    12    13   ar
    12    13    14   ar
    13    14    15   ar
    14    15    16    1
    15     2     3   ar
    16     3     4   ar
    17     4     5   ar
    18     5     6   ar
    19     6     7   ar
    20     7    29    1
    21    29    30   ar
    22    30    31   ar
    23    31    32   ar
    24    32    33   ar
    25    33    34   ar
    26     7     8   ar
    27     8     9   ar
    28    22    23   ar
    29    23    24   ar
    30    24    19   ar
    31     9     1   ar
    32    15    10   ar
    33     9     4   ar
    34    34    29   ar
    35    25    27    1
    36    25    28    1
    37    16    17    1
    38    16    18    1
@<TRIPOS>MOLECULE
*****
 34 38 0 0 0
SMALL
GASTEIGER

@<TRIPOS>ATOM
      1 N          63.1919   88.8700   11.5304 N.ar    1  UNL1       -0.2754
      2 C          62.4019   89.1425   10.2847 C.ar    1  UNL1        0.1515
      3 N          62.6852   90.5514    9.8552 N.ar    1  UNL1       -0.2248
      4 C          63.6503   91.1497   10.8353 C.ar    1  UNL1        0.1173
      5 C          64.2843   92.5065   10.9188 C.ar    1  UNL1        0.0238
      6 C          65.2316   92.8241   12.0376 C.ar    1  UNL1        0.0208
      7 C          65.5447   91.7849   13.0730 C.ar    1  UNL1        0.0830
      8 N          64.9107   90.4281   12.9895 N.ar    1  UNL1       -0.2264
      9 C          63.9634   90.1105   11.8707 C.ar    1  UNL1        0.1665
     10 C          61.4889   88.1757    9.5906 C.ar    1  UNL1        0.0657
     11 C          62.0566   86.9692    8.9036 C.ar    1  UNL1        0.0074
     12 C          61.1436   86.0025    8.2094 C.ar    1  UNL1        0.0209
     13 C          59.6630   86.2422    8.2022 C.ar    1  UNL1        0.1003
     14 N          59.0953   87.4487    8.8892 N.ar    1  UNL1       -0.2295
     15 C          60.0083   88.4155    9.5834 C.ar    1  UNL1        0.1282
     16 N          59.4405   89.6220   10.2704 N.pl3   1  UNL1       -0.3425
     17 H          58.4687   89.7794   10.2657 H       1  UNL1        0.1437
     18 H          60.0397   90.2566   10.7260 H       1  UNL1        0.1437
     19 C          63.2391   85.0087   13.8409 C.ar    1  UNL1       -0.0065
     20 C          63.9161   86.2252   14.3993 C.ar    1  UNL1       -0.0014
     21 C          63.9003   87.5123   13.6291 C.ar    1  UNL1        0.0173
     22 C          63.2077   87.5829   12.3006 C.ar    1  UNL1        0.0667
     23 C          62.5307   86.3663   11.7421 C.ar    1  UNL1        0.0173
     24 C          62.5464   85.0793   12.5123 C.ar    1  UNL1       -0.0014
     25 N          64.4353   83.3756   15.4695 N.3     1  UNL1       -0.3175
     26 C          63.2548   83.7216   14.6111 C.3     1  UNL1        0.0922
     27 H          64.2776   82.4725   15.9165 H       1  UNL1        0.1192
     28 H          64.5572   84.0924   16.1849 H       1  UNL1        0.1192
     29 C          66.4920   92.1026   14.1918 C.ar    1  UNL1        0.0177
     30 C          65.9606   92.4027   15.5620 C.ar    1  UNL1        0.0015
     31 C          66.9079   92.7204   16.6809 C.ar    1  UNL1        0.0000
     32 C          68.3866   92.7379   16.4295 C.ar    1  UNL1        0.0000
     33 C          68.9180   92.4378   15.0592 C.ar    1  UNL1        0.0000
     34 C          67.9707   92.1201   13.9404 C.ar    1  UNL1        0.0015
@<TRIPOS>BOND
     1    25    26    1
     2    26    19    1
     3    19    20   ar
     4    20    21   ar
     5    21    22   ar
     6    22     1    1
     7     1     2   ar
     8     2    10    1
     9    10    11   ar
    10    11    12   ar
    11    12    13   ar
    12    13    14   ar
    13    14    15   ar
    14    15    16    1
    15     2     3   ar
    16     3     4   ar
    17     4     5   ar
    18     5     6   ar
    19     6     7   ar
    20     7    29    1
    21    29    30   ar
    22    30    31   ar
    23    31    32   ar
    24    32    33   ar
    25    33    34   ar
    26     7     8   ar
    27     8     9   ar
    28    22    23   ar
    29    23    24   ar
    30    24    19   ar
    31     9     1   ar
    32    15    10   ar
    33     9     4   ar
    34    34    29   ar
    35    25    27    1
    36    25    28    1
    37    16    17    1
    38    16    18    1
@<TRIPOS>MOLECULE
*****
 34 38 0 0 0
SMALL
GASTEIGER

@<TRIPOS>ATOM
      1 N          63.2270   84.0862   12.5826 N.ar    1  UNL1       -0.2754
      2 C          63.3350   82.6815   13.0974 C.ar    1  UNL1        0.1515
      3 N          63.7197   82.7468   14.5457 N.ar    1  UNL1       -0.2248
      4 C          63.8495   84.1920   14.9261 C.ar    1  UNL1        0.1173
      5 C          64.2056   84.8611   16.2205 C.ar    1  UNL1        0.0238
      6 C          64.2573   86.3579   16.3016 C.ar    1  UNL1        0.0208
      7 C          63.9528   87.1857   15.0883 C.ar    1  UNL1        0.0830
      8 N          63.5967   86.5167   13.7939 N.ar    1  UNL1       -0.2264
      9 C          63.5450   85.0198   13.7128 C.ar    1  UNL1        0.1665
     10 C          63.0995   81.4309   12.3032 C.ar    1  UNL1        0.0657
     11 C          63.3632   81.4193   10.8266 C.ar    1  UNL1        0.0074
     12 C          63.1278   80.1688   10.0325 C.ar    1  UNL1        0.0209
     13 C          62.6286   78.9298   10.7149 C.ar    1  UNL1        0.1003
     14 N          62.3649   78.9414   12.1914 N.ar    1  UNL1       -0.2295
     15 C          62.6004   80.1919   12.9856 C.ar    1  UNL1        0.1282
     16 N          62.3366   80.2035   14.4622 N.pl3   1  UNL1       -0.3425
     17 H          62.0090   79.3902   14.9101 H       1  UNL1        0.1437
     18 H          62.4911   81.0242   14.9835 H       1  UNL1        0.1437
     19 C          62.1402   85.2888    8.3847 C.ar    1  UNL1       -0.0065
     20 C          61.2959   85.7444    9.5377 C.ar    1  UNL1       -0.0014
     21 C          61.6582   85.3435   10.9370 C.ar    1  UNL1        0.0173
     22 C          62.8647   84.4871   11.1833 C.ar    1  UNL1        0.0667
     23 C          63.7091   84.0315   10.0302 C.ar    1  UNL1        0.0173
     24 C          63.3468   84.4324    8.6309 C.ar    1  UNL1       -0.0014
     25 N          61.1666   84.6868    6.0523 N.3     1  UNL1       -0.3175
     26 C          61.7778   85.6897    6.9853 C.3     1  UNL1        0.0922
     27 H          60.9861   85.1275    5.1503 H       1  UNL1        0.1192
     28 H          60.2894   84.3465    6.4461 H       1  UNL1        0.1192
     29 C          64.0045   88.6827   15.1694 C.ar    1  UNL1        0.0177
     30 C          64.6251   89.4732   14.0559 C.ar    1  UNL1        0.0015
     31 C          64.6767   90.9702   14.1371 C.ar    1  UNL1        0.0000
     32 C          64.1079   91.6766   15.3318 C.ar    1  UNL1        0.0000
     33 C          63.4873   90.8860   16.4454 C.ar    1  UNL1        0.0000
     34 C          63.4356   89.3891   16.3642 C.ar    1  UNL1        0.0015
@<TRIPOS>BOND
     1    25    26    1
     2    26    19    1
     3    19    20   ar
     4    20    21   ar
     5    21    22   ar
     6    22     1    1
     7     1     2   ar
     8     2    10    1
     9    10    11   ar
    10    11    12   ar
    11    12    13   ar
    12    13    14   ar
    13    14    15   ar
    14    15    16    1
    15     2     3   ar
    16     3     4   ar
    17     4     5   ar
    18     5     6   ar
    19     6     7   ar
    20     7    29    1
    21    29    30   ar
    22    30    31   ar
    23    31    32   ar
    24    32    33   ar
    25    33    34   ar
    26     7     8   ar
    27     8     9   ar
    28    22    23   ar
    29    23    24   ar
    30    24    19   ar
    31     9     1   ar
    32    15    10   ar
    33     9     4   ar
    34    34    29   ar
    35    25    27    1
    36    25    28    1
    37    16    17    1
    38    16    18    1
@<TRIPOS>MOLECULE
*****
 34 38 0 0 0
SMALL
GASTEIGER

@<TRIPOS>ATOM
      1 N          63.1861   85.0915   13.0433 N.ar    1  UNL1       -0.2754
      2 C          62.9678   84.0206   14.0708 C.ar    1  UNL1        0.1515
      3 N          63.2229   84.6171   15.4232 N.ar    1  UNL1       -0.2248
      4 C          63.5988   86.0565   15.2317 C.ar    1  UNL1        0.1173
      5 C          63.9589   87.1381   16.2066 C.ar    1  UNL1        0.0238
      6 C          64.2962   88.5130   15.7105 C.ar    1  UNL1        0.0208
      7 C          64.2734   88.8062   14.2397 C.ar    1  UNL1        0.0830
      8 N          63.9133   87.7246   13.2648 N.ar    1  UNL1       -0.2264
      9 C          63.5761   86.3497   13.7608 C.ar    1  UNL1        0.1665
     10 C          62.5652   82.6024   13.7943 C.ar    1  UNL1        0.0657
     11 C          61.1965   82.1230   14.1775 C.ar    1  UNL1        0.0074
     12 C          60.7939   80.7048   13.9010 C.ar    1  UNL1        0.0209
     13 C          61.7599   79.7659   13.2414 C.ar    1  UNL1        0.1003
     14 N          63.1286   80.2453   12.8581 N.ar    1  UNL1       -0.2295
     15 C          63.5312   81.6635   13.1346 C.ar    1  UNL1        0.1282
     16 N          64.9000   82.1429   12.7514 N.pl3   1  UNL1       -0.3425
     17 H          65.5340   81.5266   12.3184 H       1  UNL1        0.1437
     18 H          65.1643   83.0737   12.9328 H       1  UNL1        0.1437
     19 C          62.7479   84.6133    8.5903 C.ar    1  UNL1       -0.0065
     20 C          61.8831   85.5919    9.3282 C.ar    1  UNL1       -0.0014
     21 C          62.0292   85.7512   10.8126 C.ar    1  UNL1        0.0173
     22 C          63.0400   84.9321   11.5590 C.ar    1  UNL1        0.0667
     23 C          63.9048   83.9535   10.8210 C.ar    1  UNL1        0.0173
     24 C          63.7587   83.7941    9.3367 C.ar    1  UNL1       -0.0014
     25 N          61.2424   84.5170    6.4750 N.3     1  UNL1       -0.3175
     26 C          62.6018   84.4539    7.1059 C.3     1  UNL1        0.0922
     27 H          61.3293   84.3900    5.4667 H       1  UNL1        0.1192
     28 H          60.8198   85.4250    6.6681 H       1  UNL1        0.1192
     29 C          64.6107   90.1811   13.7437 C.ar    1  UNL1        0.0177
     30 C          63.9590   90.7109   12.5009 C.ar    1  UNL1        0.0015
     31 C          64.2964   92.0858   12.0049 C.ar    1  UNL1        0.0000
     32 C          65.2854   92.9308   12.7517 C.ar    1  UNL1        0.0000
     33 C          65.9371   92.4009   13.9946 C.ar    1  UNL1        0.0000
     34 C          65.5998   91.0261   14.4905 C.ar    1  UNL1        0.0015
@<TRIPOS>BOND
     1    25    26    1
     2    26    19    1
     3    19    20   ar
     4    20    21   ar
     5    21    22   ar
     6    22     1    1
     7     1     2   ar
     8     2    10    1
     9    10    11   ar
    10    11    12   ar
    11    12    13   ar
    12    13    14   ar
    13    14    15   ar
    14    15    16    1
    15     2     3   ar
    16     3     4   ar
    17     4     5   ar
    18     5     6   ar
    19     6     7   ar
    20     7    29    1
    21    29    30   ar
    22    30    31   ar
    23    31    32   ar
    24    32    33   ar
    25    33    34   ar
    26     7     8   ar
    27     8     9   ar
    28    22    23   ar
    29    23    24   ar
    30    24    19   ar
    31     9     1   ar
    32    15    10   ar
    33     9     4   ar
    34    34    29   ar
    35    25    27    1
    36    25    28    1
    37    16    17    1
    38    16    18    1
@<TRIPOS>MOLECULE
*****
 34 38 0 0 0
SMALL
GASTEIGER

@<TRIPOS>ATOM
      1 N          62.8116   86.2610   11.9212 N.ar    1  UNL1       -0.2754
      2 C          63.4549   87.2222   12.8763 C.ar    1  UNL1        0.1515
      3 N          64.2403   86.4264   13.8762 N.ar    1  UNL1       -0.2248
      4 C          64.0825   84.9733   13.5390 C.ar    1  UNL1        0.1173
      5 C          64.6287   83.7300   14.1761 C.ar    1  UNL1        0.0238
      6 C          64.2919   82.3846   13.6050 C.ar    1  UNL1        0.0208
      7 C          63.4089   82.2824   12.3967 C.ar    1  UNL1        0.0830
      8 N          62.8627   83.5256   11.7596 N.ar    1  UNL1       -0.2264
      9 C          63.1995   84.8711   12.3308 C.ar    1  UNL1        0.1665
     10 C          63.3340   88.7169   12.8382 C.ar    1  UNL1        0.0657
     11 C          63.1244   89.4193   11.5296 C.ar    1  UNL1        0.0074
     12 C          63.0035   90.9139   11.4915 C.ar    1  UNL1        0.0209
     13 C          63.0921   91.7061   12.7621 C.ar    1  UNL1        0.1003
     14 N          63.3017   91.0037   14.0708 N.ar    1  UNL1       -0.2295
     15 C          63.4227   89.5091   14.1088 C.ar    1  UNL1        0.1282
     16 N          63.6323   88.8067   15.4176 N.pl3   1  UNL1       -0.3425
     17 H          63.6905   89.3267   16.2515 H       1  UNL1        0.1437
     18 H          63.7116   87.8257   15.4426 H       1  UNL1        0.1437
     19 C          60.1802   87.3548    8.4385 C.ar    1  UNL1       -0.0065
     20 C          59.8156   87.8014    9.8233 C.ar    1  UNL1       -0.0014
     21 C          60.6928   87.4368   10.9842 C.ar    1  UNL1        0.0173
     22 C          61.9345   86.6256   10.7603 C.ar    1  UNL1        0.0667
     23 C          62.2990   86.1790    9.3755 C.ar    1  UNL1        0.0173
     24 C          61.4219   86.5437    8.2146 C.ar    1  UNL1       -0.0014
     25 N          59.1482   89.1566    6.8769 N.3     1  UNL1       -0.3175
     26 C          59.3030   87.7195    7.2776 C.3     1  UNL1        0.0922
     27 H          58.5211   89.2203    6.0750 H       1  UNL1        0.1192
     28 H          60.0598   89.5399    6.6269 H       1  UNL1        0.1192
     29 C          63.0721   80.9368   11.8256 C.ar    1  UNL1        0.0177
     30 C          63.1559   80.7080   10.3455 C.ar    1  UNL1        0.0015
     31 C          62.8191   79.3624    9.7744 C.ar    1  UNL1        0.0000
     32 C          62.3986   78.2458   10.6833 C.ar    1  UNL1        0.0000
     33 C          62.3148   78.4747   12.1635 C.ar    1  UNL1        0.0000
     34 C          62.6515   79.8202   12.7345 C.ar    1  UNL1        0.0015
@<TRIPOS>BOND
     1    25    26    1
     2    26    19    1
     3    19    20   ar
     4    20    21   ar
     5    21    22   ar
     6    22     1    1
     7     1     2   ar
     8     2    10    1
     9    10    11   ar
    10    11    12   ar
    11    12    13   ar
    12    13    14   ar
    13    14    15   ar
    14    15    16    1
    15     2     3   ar
    16     3     4   ar
    17     4     5   ar
    18     5     6   ar
    19     6     7   ar
    20     7    29    1
    21    29    30   ar
    22    30    31   ar
    23    31    32   ar
    24    32    33   ar
    25    33    34   ar
    26     7     8   ar
    27     8     9   ar
    28    22    23   ar
    29    23    24   ar
    30    24    19   ar
    31     9     1   ar
    32    15    10   ar
    33     9     4   ar
    34    34    29   ar
    35    25    27    1
    36    25    28    1
    37    16    17    1
    38    16    18    1
