@<TRIPOS>MOLECULE
*****
 34 37 0 0 0
SMALL
GASTEIGER

@<TRIPOS>ATOM
      1 N          63.3787   84.0512   13.5266 N.ar    1  UNL1       -0.1822
      2 C          63.0590   83.0314   14.5790 C.ar    1  UNL1        0.2143
      3 N          62.8409   81.5653   14.3487 N.pl3   1  UNL1       -0.3275
      4 N          62.9957   83.7350   15.9022 N.ar    1  UNL1       -0.2126
      5 C          63.2762   85.1897   15.6676 C.ar    1  UNL1        0.1017
      6 C          63.3467   86.3616   16.6012 C.ar    1  UNL1        0.0208
      7 C          63.6539   87.7290   16.0665 C.ar    1  UNL1        0.0052
      8 C          63.8907   87.9244   14.5982 C.ar    1  UNL1        0.0450
      9 C          63.8202   86.7525   13.6647 C.ar    1  UNL1        0.0241
     10 C          63.5129   85.3852   14.1993 C.ar    1  UNL1        0.1027
     11 H          62.9039   81.1953   13.4385 H       1  UNL1        0.1451
     12 H          62.6348   80.9731   15.1076 H       1  UNL1        0.1451
     13 C          64.1979   89.2919   14.0636 C.2     1  UNL1        0.2236
     14 N          65.2207   90.2431   14.6106 N.2     1  UNL1       -0.0387
     15 C          65.1912   91.4873   13.7732 C.2     1  UNL1        0.3455
     16 N          64.1502   91.3049   12.7087 N.2     1  UNL1       -0.0552
     17 C          63.5363   89.9481   12.8882 C.3     1  UNL1        0.3013
     18 C          62.4514   89.3523   12.0410 C.ar    1  UNL1        0.0344
     19 C          62.8028   88.4264   10.9143 C.ar    1  UNL1        0.0026
     20 C          61.7178   87.8305   10.0671 C.ar    1  UNL1        0.0295
     21 C          60.2814   88.1605   10.3465 C.ar    1  UNL1        0.1401
     22 F          59.1965   87.5646    9.4993 F       1  UNL1       -0.2042
     23 C          59.9301   89.0863   11.4731 C.ar    1  UNL1        0.0295
     24 C          61.0150   89.6822   12.3203 C.ar    1  UNL1        0.0026
     25 C          66.0517   92.7006   13.9664 C.3     1  UNL1        0.1010
     26 C          66.1259   92.4138   15.4368 C.3     1  UNL1        0.0124
     27 C          65.9774   92.9874   12.4959 C.3     1  UNL1        0.0124
     28 C          66.9121   93.9140   14.1596 C.3     1  UNL1        0.0124
     29 S          63.5364   83.7841   12.0590 S.O2    1  UNL1        0.0667
     30 O          64.7081   82.8929   12.3472 O.2     1  UNL1       -0.1521
     31 O          62.3648   84.6752   11.7708 O.2     1  UNL1       -0.1521
     32 C          64.2542   82.2064   10.1236 C.3     1  UNL1        0.0275
     33 C          63.6943   83.5169   10.5914 C.3     1  UNL1        0.1516
     34 C          63.2921   84.5604    9.5917 C.3     1  UNL1        0.0275
@<TRIPOS>BOND
     1    32    33    1
     2    33    34    1
     3    33    29    1
     4    29    30    2
     5    29    31    2
     6    29     1    1
     7     1     2   ar
     8     2     3    1
     9     2     4   ar
    10     4     5   ar
    11     5     6   ar
    12     6     7   ar
    13     7     8   ar
    14     8    13    1
    15    13    14    2
    16    14    15    1
    17    15    25    1
    18    25    26    1
    19    25    27    1
    20    25    28    1
    21    15    16    2
    22    16    17    1
    23    17    18    1
    24    18    19   ar
    25    19    20   ar
    26    20    21   ar
    27    21    22    1
    28    21    23   ar
    29    23    24   ar
    30     8     9   ar
    31     9    10   ar
    32    10     1   ar
    33    10     5   ar
    34    17    13    1
    35    24    18   ar
    36     3    11    1
    37     3    12    1
@<TRIPOS>MOLECULE
*****
 34 37 0 0 0
SMALL
GASTEIGER

@<TRIPOS>ATOM
      1 N          63.4679   85.1253   14.1623 N.ar    1  UNL1       -0.1822
      2 C          63.2472   84.4523   15.4845 C.ar    1  UNL1        0.2143
      3 N          63.0646   82.9799   15.7048 N.pl3   1  UNL1       -0.3275
      4 N          63.2413   85.5103   16.5478 N.ar    1  UNL1       -0.2126
      5 C          63.4583   86.8372   15.8827 C.ar    1  UNL1        0.1017
      6 C          63.5464   88.2313   16.4292 C.ar    1  UNL1        0.0208
      7 C          63.7747   89.3875   15.5012 C.ar    1  UNL1        0.0052
      8 C          63.9147   89.1495   14.0268 C.ar    1  UNL1        0.0450
      9 C          63.8266   87.7554   13.4804 C.ar    1  UNL1        0.0241
     10 C          63.5984   86.5992   14.4084 C.ar    1  UNL1        0.1027
     11 H          63.0843   82.3614   14.9391 H       1  UNL1        0.1451
     12 H          62.9250   82.6319   16.6151 H       1  UNL1        0.1451
     13 C          64.1430   90.3058   13.0989 C.2     1  UNL1        0.2236
     14 N          65.1416   91.4082   13.2928 N.2     1  UNL1       -0.0387
     15 C          65.0285   92.3464   12.1280 C.2     1  UNL1        0.3455
     16 N          63.9599   91.8238   11.2140 N.2     1  UNL1       -0.0552
     17 C          63.4127   90.5627   11.8141 C.3     1  UNL1        0.3013
     18 C          62.3259   89.7085   11.2316 C.ar    1  UNL1        0.0344
     19 C          60.9345   89.7831   11.7870 C.ar    1  UNL1        0.0026
     20 C          59.8477   88.9289   11.2046 C.ar    1  UNL1        0.0295
     21 C          60.1523   88.0001   10.0667 C.ar    1  UNL1        0.1401
     22 F          59.0656   87.1459    9.4843 F       1  UNL1       -0.2042
     23 C          61.5437   87.9255    9.5114 C.ar    1  UNL1        0.0295
     24 C          62.6305   88.7797   10.0939 C.ar    1  UNL1        0.0026
     25 C          65.8412   93.5889   11.9144 C.3     1  UNL1        0.1010
     26 C          65.4107   93.6236   10.4780 C.3     1  UNL1        0.0124
     27 C          66.2717   93.5541   13.3509 C.3     1  UNL1        0.0124
     28 C          66.6539   94.8314   11.7009 C.3     1  UNL1        0.0124
     29 S          63.5447   84.4440   12.8281 S.O2    1  UNL1        0.0667
     30 O          62.3046   85.1646   12.3888 O.2     1  UNL1       -0.1521
     31 O          64.7847   83.7236   13.2674 O.2     1  UNL1       -0.1521
     32 C          63.0882   84.4474   10.2704 C.3     1  UNL1        0.0275
     33 C          63.6214   83.7628   11.4939 C.3     1  UNL1        0.1516
     34 C          64.2313   82.3969   11.3833 C.3     1  UNL1        0.0275
@<TRIPOS>BOND
     1    32    33    1
     2    33    34    1
     3    33    29    1
     4    29    30    2
     5    29    31    2
     6    29     1    1
     7     1     2   ar
     8     2     3    1
     9     2     4   ar
    10     4     5   ar
    11     5     6   ar
    12     6     7   ar
    13     7     8   ar
    14     8    13    1
    15    13    14    2
    16    14    15    1
    17    15    25    1
    18    25    26    1
    19    25    27    1
    20    25    28    1
    21    15    16    2
    22    16    17    1
    23    17    18    1
    24    18    19   ar
    25    19    20   ar
    26    20    21   ar
    27    21    22    1
    28    21    23   ar
    29    23    24   ar
    30     8     9   ar
    31     9    10   ar
    32    10     1   ar
    33    10     5   ar
    34    17    13    1
    35    24    18   ar
    36     3    11    1
    37     3    12    1
@<TRIPOS>MOLECULE
*****
 34 37 0 0 0
SMALL
GASTEIGER

@<TRIPOS>ATOM
      1 N          62.7739   84.8979   11.9895 N.ar    1  UNL1       -0.1822
      2 C          62.6739   83.5760   12.6911 C.ar    1  UNL1        0.2143
      3 N          62.1799   82.2937   12.0897 N.pl3   1  UNL1       -0.3275
      4 N          63.1546   83.7614   14.0998 N.ar    1  UNL1       -0.2126
      5 C          63.5517   85.1980   14.2688 C.ar    1  UNL1        0.1017
      6 C          64.0972   85.9572   15.4418 C.ar    1  UNL1        0.0208
      7 C          64.4073   87.4189   15.3105 C.ar    1  UNL1        0.0052
      8 C          64.1720   88.1213   14.0062 C.ar    1  UNL1        0.0450
      9 C          63.6265   87.3621   12.8332 C.ar    1  UNL1        0.0241
     10 C          63.3164   85.9004   12.9645 C.ar    1  UNL1        0.1027
     11 H          61.8840   82.2721   11.1509 H       1  UNL1        0.1451
     12 H          62.1515   81.4736   12.6337 H       1  UNL1        0.1451
     13 C          64.4822   89.5831   13.8750 C.2     1  UNL1        0.2236
     14 N          65.5194   90.3376   14.6527 N.2     1  UNL1       -0.0387
     15 C          65.4879   91.7677   14.2014 C.2     1  UNL1        0.3455
     16 N          64.4311   91.8971   13.1447 N.2     1  UNL1       -0.0552
     17 C          63.8096   90.5469   12.9430 C.3     1  UNL1        0.3013
     18 C          62.7087   90.2183   11.9786 C.ar    1  UNL1        0.0344
     19 C          61.3130   89.9958   12.4812 C.ar    1  UNL1        0.0026
     20 C          60.2121   89.6672   11.5168 C.ar    1  UNL1        0.0295
     21 C          60.5068   89.5611   10.0498 C.ar    1  UNL1        0.1401
     22 F          59.4060   89.2324    9.0854 F       1  UNL1       -0.2042
     23 C          61.9025   89.7836    9.5473 C.ar    1  UNL1        0.0295
     24 C          63.0034   90.1122   10.5117 C.ar    1  UNL1        0.0026
     25 C          66.3599   92.8742   14.7163 C.3     1  UNL1        0.1010
     26 C          66.5380   93.3850   13.3173 C.3     1  UNL1        0.0124
     27 C          66.1819   92.3634   16.1154 C.3     1  UNL1        0.0124
     28 C          67.2320   93.9807   15.2312 C.3     1  UNL1        0.0124
     29 S          62.3974   85.1698   10.5631 S.O2    1  UNL1        0.0667
     30 O          63.5059   84.2718   10.0994 O.2     1  UNL1       -0.1521
     31 O          61.2890   86.0677   11.0268 O.2     1  UNL1       -0.1521
     32 C          60.7166   86.1109    8.8197 C.3     1  UNL1        0.0275
     33 C          62.0210   85.4416    9.1368 C.3     1  UNL1        0.1516
     34 C          62.9491   85.0440    8.0275 C.3     1  UNL1        0.0275
@<TRIPOS>BOND
     1    32    33    1
     2    33    34    1
     3    33    29    1
     4    29    30    2
     5    29    31    2
     6    29     1    1
     7     1     2   ar
     8     2     3    1
     9     2     4   ar
    10     4     5   ar
    11     5     6   ar
    12     6     7   ar
    13     7     8   ar
    14     8    13    1
    15    13    14    2
    16    14    15    1
    17    15    25    1
    18    25    26    1
    19    25    27    1
    20    25    28    1
    21    15    16    2
    22    16    17    1
    23    17    18    1
    24    18    19   ar
    25    19    20   ar
    26    20    21   ar
    27    21    22    1
    28    21    23   ar
    29    23    24   ar
    30     8     9   ar
    31     9    10   ar
    32    10     1   ar
    33    10     5   ar
    34    17    13    1
    35    24    18   ar
    36     3    11    1
    37     3    12    1
@<TRIPOS>MOLECULE
*****
 34 37 0 0 0
SMALL
GASTEIGER

@<TRIPOS>ATOM
      1 N          66.0232   92.3810   12.9015 N.ar    1  UNL1       -0.1822
      2 C          66.3642   92.9276   14.2560 C.ar    1  UNL1        0.2143
      3 N          67.4244   93.9459   14.5546 N.pl3   1  UNL1       -0.3275
      4 N          65.4589   92.2772   15.2597 N.ar    1  UNL1       -0.2126
      5 C          64.5583   91.3286   14.5254 C.ar    1  UNL1        0.1017
      6 C          63.4658   90.4147   14.9956 C.ar    1  UNL1        0.0208
      7 C          62.7221   89.5649   14.0083 C.ar    1  UNL1        0.0052
      8 C          63.0709   89.6291   12.5509 C.ar    1  UNL1        0.0450
      9 C          64.1634   90.5430   12.0807 C.ar    1  UNL1        0.0241
     10 C          64.9071   91.3927   13.0679 C.ar    1  UNL1        0.1027
     11 H          67.9706   94.3165   13.8241 H       1  UNL1        0.1451
     12 H          67.5741   94.2436   15.4810 H       1  UNL1        0.1451
     13 C          62.3271   88.7792   11.5636 C.2     1  UNL1        0.2236
     14 N          61.5029   89.2794   10.4144 N.2     1  UNL1       -0.0387
     15 C          60.9433   88.0894    9.6927 C.2     1  UNL1        0.3455
     16 N          61.4217   86.8538   10.3960 N.2     1  UNL1       -0.0552
     17 C          62.2768   87.2802   11.5522 C.3     1  UNL1        0.3013
     18 C          62.9615   86.3676   12.5260 C.ar    1  UNL1        0.0344
     19 C          63.8796   86.9353   13.5677 C.ar    1  UNL1        0.0026
     20 C          64.5643   86.0227   14.5415 C.ar    1  UNL1        0.0295
     21 C          64.3310   84.5425   14.4738 C.ar    1  UNL1        0.1401
     22 F          65.0157   83.6299   15.4477 F       1  UNL1       -0.2042
     23 C          63.4129   83.9749   13.4322 C.ar    1  UNL1        0.0295
     24 C          62.7282   84.8874   12.4584 C.ar    1  UNL1        0.0026
     25 C          60.0605   88.1282    8.4807 C.3     1  UNL1        0.1010
     26 C          60.0707   89.6276    8.5213 C.3     1  UNL1        0.0124
     27 C          60.0503   86.6288    8.4401 C.3     1  UNL1        0.0124
     28 C          59.1776   88.1670    7.2687 C.3     1  UNL1        0.0124
     29 S          66.6825   92.7566   11.6076 S.O2    1  UNL1        0.0667
     30 O          65.4257   93.4472   11.1677 O.2     1  UNL1       -0.1521
     31 O          67.9393   92.0661   12.0474 O.2     1  UNL1       -0.1521
     32 C          68.2602   92.1629    9.6305 C.3     1  UNL1        0.0275
     33 C          67.3418   93.1323   10.3136 C.3     1  UNL1        0.1516
     34 C          67.0826   94.4776    9.7028 C.3     1  UNL1        0.0275
@<TRIPOS>BOND
     1    32    33    1
     2    33    34    1
     3    33    29    1
     4    29    30    2
     5    29    31    2
     6    29     1    1
     7     1     2   ar
     8     2     3    1
     9     2     4   ar
    10     4     5   ar
    11     5     6   ar
    12     6     7   ar
    13     7     8   ar
    14     8    13    1
    15    13    14    2
    16    14    15    1
    17    15    25    1
    18    25    26    1
    19    25    27    1
    20    25    28    1
    21    15    16    2
    22    16    17    1
    23    17    18    1
    24    18    19   ar
    25    19    20   ar
    26    20    21   ar
    27    21    22    1
    28    21    23   ar
    29    23    24   ar
    30     8     9   ar
    31     9    10   ar
    32    10     1   ar
    33    10     5   ar
    34    17    13    1
    35    24    18   ar
    36     3    11    1
    37     3    12    1
@<TRIPOS>MOLECULE
*****
 34 37 0 0 0
SMALL
GASTEIGER

@<TRIPOS>ATOM
      1 N          61.7440   86.8871   10.5337 N.ar    1  UNL1       -0.1822
      2 C          60.6039   87.0726    9.5767 C.ar    1  UNL1        0.2143
      3 N          59.9216   85.9878    8.7973 N.pl3   1  UNL1       -0.3275
      4 N          60.2659   88.5335    9.5361 N.ar    1  UNL1       -0.2126
      5 C          61.1972   89.2508   10.4680 C.ar    1  UNL1        0.1017
      6 C          61.3313   90.6991   10.8347 C.ar    1  UNL1        0.0208
      7 C          62.3789   91.1298   11.8180 C.ar    1  UNL1        0.0052
      8 C          63.2924   90.1123   12.4345 C.ar    1  UNL1        0.0450
      9 C          63.1583   88.6640   12.0678 C.ar    1  UNL1        0.0241
     10 C          62.1107   88.2333   11.0845 C.ar    1  UNL1        0.1027
     11 H          60.2170   85.0534    8.8919 H       1  UNL1        0.1451
     12 H          59.1785   86.2101    8.1910 H       1  UNL1        0.1451
     13 C          64.3401   90.5430   13.4178 C.2     1  UNL1        0.2236
     14 N          65.1804   91.7821   13.3247 N.2     1  UNL1       -0.0387
     15 C          66.0910   91.8153   14.5162 C.2     1  UNL1        0.3455
     16 N          65.8136   90.5966   15.3457 N.2     1  UNL1       -0.0552
     17 C          64.7315   89.8104   14.6669 C.3     1  UNL1        0.3013
     18 C          64.1439   88.5183   15.1519 C.ar    1  UNL1        0.0344
     19 C          63.1735   88.5184   16.2959 C.ar    1  UNL1        0.0026
     20 C          62.5860   87.2263   16.7809 C.ar    1  UNL1        0.0295
     21 C          62.9687   85.9342   16.1222 C.ar    1  UNL1        0.1401
     22 F          62.3811   84.6421   16.6072 F       1  UNL1       -0.2042
     23 C          63.9390   85.9342   14.9783 C.ar    1  UNL1        0.0295
     24 C          64.5266   87.2262   14.4932 C.ar    1  UNL1        0.0026
     25 C          67.1017   92.8801   14.8241 C.3     1  UNL1        0.1010
     26 C          67.7093   91.9994   15.8753 C.3     1  UNL1        0.0124
     27 C          66.4941   93.7608   13.7729 C.3     1  UNL1        0.0124
     28 C          68.1123   93.9449   15.1320 C.3     1  UNL1        0.0124
     29 S          62.4020   85.5842   10.8792 S.O2    1  UNL1        0.0667
     30 O          62.9063   85.4655    9.4714 O.2     1  UNL1       -0.1521
     31 O          61.8978   85.7027   12.2868 O.2     1  UNL1       -0.1521
     32 C          62.8532   83.6725   12.5798 C.3     1  UNL1        0.0275
     33 C          63.0601   84.2812   11.2246 C.3     1  UNL1        0.1516
     34 C          63.9249   83.5869   10.2147 C.3     1  UNL1        0.0275
@<TRIPOS>BOND
     1    32    33    1
     2    33    34    1
     3    33    29    1
     4    29    30    2
     5    29    31    2
     6    29     1    1
     7     1     2   ar
     8     2     3    1
     9     2     4   ar
    10     4     5   ar
    11     5     6   ar
    12     6     7   ar
    13     7     8   ar
    14     8    13    1
    15    13    14    2
    16    14    15    1
    17    15    25    1
    18    25    26    1
    19    25    27    1
    20    25    28    1
    21    15    16    2
    22    16    17    1
    23    17    18    1
    24    18    19   ar
    25    19    20   ar
    26    20    21   ar
    27    21    22    1
    28    21    23   ar
    29    23    24   ar
    30     8     9   ar
    31     9    10   ar
    32    10     1   ar
    33    10     5   ar
    34    17    13    1
    35    24    18   ar
    36     3    11    1
    37     3    12    1
@<TRIPOS>MOLECULE
*****
 34 37 0 0 0
SMALL
GASTEIGER

@<TRIPOS>ATOM
      1 N          65.5446   92.5302   12.5786 N.ar    1  UNL1       -0.1822
      2 C          65.4504   93.6897   11.6317 C.ar    1  UNL1        0.2143
      3 N          66.1613   95.0030   11.7724 N.pl3   1  UNL1       -0.3275
      4 N          64.5204   93.3053   10.5193 N.ar    1  UNL1       -0.2126
      5 C          64.0398   91.9082   10.7788 C.ar    1  UNL1        0.1017
      6 C          63.1076   91.0104   10.0205 C.ar    1  UNL1        0.0208
      7 C          62.8084   89.6336   10.5350 C.ar    1  UNL1        0.0052
      8 C          63.4414   89.1545   11.8078 C.ar    1  UNL1        0.0450
      9 C          64.3736   90.0523   12.5660 C.ar    1  UNL1        0.0241
     10 C          64.6728   91.4292   12.0515 C.ar    1  UNL1        0.1027
     11 H          66.7544   95.1617   12.5420 H       1  UNL1        0.1451
     12 H          66.0348   95.7063   11.0952 H       1  UNL1        0.1451
     13 C          63.1422   87.7776   12.3223 C.2     1  UNL1        0.2236
     14 N          63.7381   87.1443   13.5445 N.2     1  UNL1       -0.0387
     15 C          63.1588   85.7676   13.6825 C.2     1  UNL1        0.3455
     16 N          62.2048   85.5501   12.5455 N.2     1  UNL1       -0.0552
     17 C          62.1946   86.7923   11.7048 C.3     1  UNL1        0.3013
     18 C          61.3798   87.0109   10.4646 C.ar    1  UNL1        0.0344
     19 C          61.7489   86.3088    9.1914 C.ar    1  UNL1        0.0026
     20 C          60.9342   86.5273    7.9511 C.ar    1  UNL1        0.0295
     21 C          59.7502   87.4479    7.9839 C.ar    1  UNL1        0.1401
     22 F          58.9354   87.6664    6.7436 F       1  UNL1       -0.2042
     23 C          59.3812   88.1499    9.2570 C.ar    1  UNL1        0.0295
     24 C          60.1960   87.9313   10.4973 C.ar    1  UNL1        0.0026
     25 C          63.4774   84.7816   14.7670 C.3     1  UNL1        0.1010
     26 C          62.6826   83.7328   14.0470 C.3     1  UNL1        0.0124
     27 C          64.2723   85.8303   15.4870 C.3     1  UNL1        0.0124
     28 C          63.7961   83.7955   15.8515 C.3     1  UNL1        0.0124
     29 S          66.3663   92.4804   13.8326 S.O2    1  UNL1        0.0667
     30 O          65.1114   92.4284   14.6528 O.2     1  UNL1       -0.1521
     31 O          67.6210   92.5323   13.0124 O.2     1  UNL1       -0.1521
     32 C          68.6767   92.2686   15.0019 C.3     1  UNL1        0.0275
     33 C          67.1879   92.4306   15.0866 C.3     1  UNL1        0.1516
     34 C          66.5206   92.5428   16.4253 C.3     1  UNL1        0.0275
@<TRIPOS>BOND
     1    32    33    1
     2    33    34    1
     3    33    29    1
     4    29    30    2
     5    29    31    2
     6    29     1    1
     7     1     2   ar
     8     2     3    1
     9     2     4   ar
    10     4     5   ar
    11     5     6   ar
    12     6     7   ar
    13     7     8   ar
    14     8    13    1
    15    13    14    2
    16    14    15    1
    17    15    25    1
    18    25    26    1
    19    25    27    1
    20    25    28    1
    21    15    16    2
    22    16    17    1
    23    17    18    1
    24    18    19   ar
    25    19    20   ar
    26    20    21   ar
    27    21    22    1
    28    21    23   ar
    29    23    24   ar
    30     8     9   ar
    31     9    10   ar
    32    10     1   ar
    33    10     5   ar
    34    17    13    1
    35    24    18   ar
    36     3    11    1
    37     3    12    1
