@<TRIPOS>MOLECULE
*****
 30 33 0 0 0
SMALL
GASTEIGER

@<TRIPOS>ATOM
      1 C          61.1367   87.6375    9.3933 C.3     1  UNL1        0.1155
      2 S          60.4455   86.7514    8.3998 S.3     1  UNL1       -0.1226
      3 C          59.4433   87.5831    7.6555 C.3     1  UNL1        0.0706
      4 C          59.5151   88.9832    8.1890 C.3     1  UNL1        0.0706
      5 S          60.5617   89.0168    9.2631 S.3     1  UNL1       -0.1226
      6 C          64.1499   88.8586   14.3485 C.3     1  UNL1        0.0044
      7 C          64.5307   90.1374   13.6631 C.3     1  UNL1        0.0186
      8 C          65.2470   90.3182   14.9686 C.3     1  UNL1        0.0044
      9 C          65.1603   91.4789   13.4311 C.3     1  UNL1        0.0044
     10 C          64.9413   92.1955   12.1317 C.3     1  UNL1        0.0044
     11 C          64.0929   91.5706   11.0643 C.3     1  UNL1        0.0186
     12 C          64.4737   92.8494   10.3789 C.3     1  UNL1        0.0044
     13 C          63.3766   91.3898    9.7588 C.3     1  UNL1        0.0044
     14 C          63.4633   90.2290   11.2962 C.ar    1  UNL1       -0.0270
     15 C          62.6148   89.6040   10.2288 C.ar    1  UNL1       -0.0070
     16 C          61.9852   88.2625   10.4608 C.ar    1  UNL1       -0.0008
     17 C          62.2042   87.5459   11.7602 C.ar    1  UNL1       -0.0027
     18 C          63.0527   88.1708   12.8277 C.ar    1  UNL1       -0.0049
     19 C          63.6822   89.5124   12.5957 C.ar    1  UNL1       -0.0268
     20 C          61.8891   86.3889    9.7467 C.ar    1  UNL1       -0.0005
     21 C          62.9116   85.8357    8.7989 C.ar    1  UNL1       -0.0027
     22 C          63.6640   84.5870    9.1523 C.ar    1  UNL1       -0.0045
     23 C          63.3938   83.8916   10.4536 C.ar    1  UNL1       -0.0218
     24 C          62.3713   84.4448   11.4015 C.ar    1  UNL1       -0.0045
     25 C          61.6189   85.6935   11.0480 C.ar    1  UNL1       -0.0027
     26 C          64.1461   82.6431   10.8071 C.3     1  UNL1        0.0322
     27 C          64.3966   82.3003   12.2458 C.3     1  UNL1        0.0464
     28 C          63.4764   81.3578   12.9634 C.2     1  UNL1        0.0507
     29 O          63.3020   81.4658   14.4494 O.co2   1  UNL1       -0.5492
     30 O          62.7305   80.3074   12.1951 O.co2   1  UNL1       -0.5492
@<TRIPOS>UNITY_ATOM_ATTR
29 1
charge -1
@<TRIPOS>BOND
     1     6     7    1
     2     7     8    1
     3     7     9    1
     4     9    10    1
     5    10    11    1
     6    11    12    1
     7    11    13    1
     8    11    14    1
     9    14    15   ar
    10    15    16   ar
    11    16     1    1
    12     1    20    1
    13    20    21   ar
    14    21    22   ar
    15    22    23   ar
    16    23    26    1
    17    26    27    1
    18    27    28    1
    19    28    29   ar
    20    28    30   ar
    21    23    24   ar
    22    24    25   ar
    23     1     2    1
    24     2     3    1
    25     3     4    1
    26     4     5    1
    27    16    17   ar
    28    17    18   ar
    29    18    19   ar
    30    19     7    1
    31    19    14   ar
    32     5     1    1
    33    25    20   ar
@<TRIPOS>MOLECULE
*****
 30 33 0 0 0
SMALL
GASTEIGER

@<TRIPOS>ATOM
      1 C          64.9151   91.4052   14.5303 C.3     1  UNL1        0.1155
      2 S          65.7345   92.5140   15.1212 S.3     1  UNL1       -0.1226
      3 C          65.3236   92.6811   16.5541 C.3     1  UNL1        0.0706
      4 C          64.2503   91.6756   16.8488 C.3     1  UNL1        0.0706
      5 S          63.9978   90.8870   15.5980 S.3     1  UNL1       -0.1226
      6 C          61.9303   88.4518   10.3478 C.3     1  UNL1        0.0044
      7 C          62.2901   87.2203   11.1250 C.3     1  UNL1        0.0186
      8 C          61.5089   86.6017   10.0037 C.3     1  UNL1        0.0044
      9 C          62.3787   85.7740   11.5127 C.3     1  UNL1        0.0044
     10 C          63.1234   85.3739   12.7517 C.3     1  UNL1        0.0044
     11 C          63.7797   86.4200   13.6030 C.3     1  UNL1        0.0186
     12 C          64.1395   85.1885   14.3802 C.3     1  UNL1        0.0044
     13 C          64.5609   87.0386   14.7243 C.3     1  UNL1        0.0044
     14 C          63.6912   87.8664   13.2154 C.ar    1  UNL1       -0.0270
     15 C          64.3474   88.9126   14.0667 C.ar    1  UNL1       -0.0070
     16 C          64.2589   90.3589   13.6790 C.ar    1  UNL1       -0.0008
     17 C          63.5141   90.7590   12.4399 C.ar    1  UNL1       -0.0027
     18 C          62.8579   89.7128   11.5886 C.ar    1  UNL1       -0.0049
     19 C          62.9464   88.2665   11.9763 C.ar    1  UNL1       -0.0268
     20 C          65.6952   91.7046   13.2846 C.ar    1  UNL1       -0.0005
     21 C          67.1732   91.4513   13.2461 C.ar    1  UNL1       -0.0027
     22 C          67.9533   91.7507   12.0003 C.ar    1  UNL1       -0.0045
     23 C          67.2554   92.3035   10.7931 C.ar    1  UNL1       -0.0218
     24 C          65.7774   92.5569   10.8316 C.ar    1  UNL1       -0.0045
     25 C          64.9973   92.2574   12.0774 C.ar    1  UNL1       -0.0027
     26 C          68.0354   92.6030    9.5474 C.3     1  UNL1        0.0322
     27 C          68.4333   94.0146    9.2329 C.3     1  UNL1        0.0464
     28 C          67.3915   95.0922    9.1739 C.2     1  UNL1        0.0507
     29 O          66.7092   95.4054    7.8752 O.co2   1  UNL1       -0.5492
     30 O          67.0319   95.8565   10.4134 O.co2   1  UNL1       -0.5492
@<TRIPOS>UNITY_ATOM_ATTR
29 1
charge -1
@<TRIPOS>BOND
     1     6     7    1
     2     7     8    1
     3     7     9    1
     4     9    10    1
     5    10    11    1
     6    11    12    1
     7    11    13    1
     8    11    14    1
     9    14    15   ar
    10    15    16   ar
    11    16     1    1
    12     1    20    1
    13    20    21   ar
    14    21    22   ar
    15    22    23   ar
    16    23    26    1
    17    26    27    1
    18    27    28    1
    19    28    29   ar
    20    28    30   ar
    21    23    24   ar
    22    24    25   ar
    23     1     2    1
    24     2     3    1
    25     3     4    1
    26     4     5    1
    27    16    17   ar
    28    17    18   ar
    29    18    19   ar
    30    19     7    1
    31    19    14   ar
    32     5     1    1
    33    25    20   ar
@<TRIPOS>MOLECULE
*****
 30 33 0 0 0
SMALL
GASTEIGER

@<TRIPOS>ATOM
      1 C          64.5942   90.9729   13.3343 C.3     1  UNL1        0.1155
      2 S          65.4648   91.4654   14.4521 S.3     1  UNL1       -0.1226
      3 C          66.2761   92.6162   13.9351 C.3     1  UNL1        0.0706
      4 C          65.9069   92.8351   12.4978 C.3     1  UNL1        0.0706
      5 S          64.8674   91.8194   12.1265 S.3     1  UNL1       -0.1226
      6 C          60.4711   89.5956    9.3059 C.3     1  UNL1        0.0044
      7 C          60.7133   88.1729    9.7151 C.3     1  UNL1        0.0186
      8 C          59.6589   87.9670    8.6682 C.3     1  UNL1        0.0044
      9 C          60.5893   86.6787    9.7607 C.3     1  UNL1        0.0044
     10 C          61.4355   85.8846   10.7111 C.3     1  UNL1        0.0044
     11 C          62.4057   86.5845   11.6159 C.3     1  UNL1        0.0186
     12 C          62.6478   85.1619   12.0250 C.3     1  UNL1        0.0044
     13 C          63.4600   86.7905   12.6628 C.3     1  UNL1        0.0044
     14 C          62.5297   88.0788   11.5703 C.ar    1  UNL1       -0.0270
     15 C          63.4999   88.7787   12.4751 C.ar    1  UNL1       -0.0070
     16 C          63.6239   90.2729   12.4295 C.ar    1  UNL1       -0.0008
     17 C          62.7777   91.0670   11.4791 C.ar    1  UNL1       -0.0027
     18 C          61.8075   90.3671   10.5743 C.ar    1  UNL1       -0.0049
     19 C          61.6835   88.8729   10.6199 C.ar    1  UNL1       -0.0268
     20 C          64.1181   89.9801   14.3529 C.ar    1  UNL1       -0.0005
     21 C          62.9166   90.2883   15.1963 C.ar    1  UNL1       -0.0027
     22 C          62.4406   89.2954   16.2150 C.ar    1  UNL1       -0.0045
     23 C          63.1660   87.9943   16.3902 C.ar    1  UNL1       -0.0218
     24 C          64.3675   87.6860   15.5468 C.ar    1  UNL1       -0.0045
     25 C          64.8436   88.6789   14.5281 C.ar    1  UNL1       -0.0027
     26 C          62.6900   87.0014   17.4087 C.3     1  UNL1        0.0322
     27 C          63.0313   85.5486   17.2565 C.3     1  UNL1        0.0464
     28 C          62.7884   84.8542   15.9493 C.2     1  UNL1        0.0507
     29 O          63.9127   84.1404   15.2589 O.co2   1  UNL1       -0.5492
     30 O          61.4212   84.8734   15.3325 O.co2   1  UNL1       -0.5492
@<TRIPOS>UNITY_ATOM_ATTR
29 1
charge -1
@<TRIPOS>BOND
     1     6     7    1
     2     7     8    1
     3     7     9    1
     4     9    10    1
     5    10    11    1
     6    11    12    1
     7    11    13    1
     8    11    14    1
     9    14    15   ar
    10    15    16   ar
    11    16     1    1
    12     1    20    1
    13    20    21   ar
    14    21    22   ar
    15    22    23   ar
    16    23    26    1
    17    26    27    1
    18    27    28    1
    19    28    29   ar
    20    28    30   ar
    21    23    24   ar
    22    24    25   ar
    23     1     2    1
    24     2     3    1
    25     3     4    1
    26     4     5    1
    27    16    17   ar
    28    17    18   ar
    29    18    19   ar
    30    19     7    1
    31    19    14   ar
    32     5     1    1
    33    25    20   ar
@<TRIPOS>MOLECULE
*****
 30 33 0 0 0
SMALL
GASTEIGER

@<TRIPOS>ATOM
      1 C          63.5076   83.8576   12.4066 C.3     1  UNL1        0.1155
      2 S          64.1031   82.7703   13.2511 S.3     1  UNL1       -0.1226
      3 C          64.5585   81.6710   12.3379 C.3     1  UNL1        0.0706
      4 C          64.2445   82.0788   10.9290 C.3     1  UNL1        0.0706
      5 S          63.5950   83.4302   10.9714 S.3     1  UNL1       -0.1226
      6 C          60.2534   87.7252    9.3119 C.3     1  UNL1        0.0044
      7 C          60.9401   88.7792   10.1292 C.3     1  UNL1        0.0186
      8 C          60.0597   89.6435    9.2760 C.3     1  UNL1        0.0044
      9 C          61.3210   90.1332   10.6501 C.3     1  UNL1        0.0044
     10 C          62.3437   90.2569   11.7403 C.3     1  UNL1        0.0044
     11 C          62.9856   89.0266   12.3097 C.3     1  UNL1        0.0186
     12 C          63.6722   90.0805   13.1269 C.3     1  UNL1        0.0044
     13 C          63.8659   88.1622   13.1629 C.3     1  UNL1        0.0044
     14 C          62.6047   87.6724   11.7888 C.ar    1  UNL1       -0.0270
     15 C          63.2466   86.4421   12.3581 C.ar    1  UNL1       -0.0070
     16 C          62.8657   85.0880   11.8372 C.ar    1  UNL1       -0.0008
     17 C          61.8429   84.9643   10.7470 C.ar    1  UNL1       -0.0027
     18 C          61.2011   86.1947   10.1776 C.ar    1  UNL1       -0.0049
     19 C          61.5820   87.5487   10.6985 C.ar    1  UNL1       -0.0268
     20 C          63.2860   84.5422   13.7227 C.ar    1  UNL1       -0.0005
     21 C          64.4264   85.2325   14.4105 C.ar    1  UNL1       -0.0027
     22 C          64.2047   85.9172   15.7266 C.ar    1  UNL1       -0.0045
     23 C          62.8427   85.9115   16.3550 C.ar    1  UNL1       -0.0218
     24 C          61.7023   85.2212   15.6673 C.ar    1  UNL1       -0.0045
     25 C          61.9240   84.5365   14.3511 C.ar    1  UNL1       -0.0027
     26 C          62.6210   86.5960   17.6711 C.3     1  UNL1        0.0322
     27 C          63.0870   88.0079   17.8699 C.3     1  UNL1        0.0464
     28 C          62.7239   89.0654   16.8699 C.2     1  UNL1        0.0507
     29 O          61.4163   88.9890   16.1388 O.co2   1  UNL1       -0.5492
     30 O          63.6684   90.1993   16.6010 O.co2   1  UNL1       -0.5492
@<TRIPOS>UNITY_ATOM_ATTR
29 1
charge -1
@<TRIPOS>BOND
     1     6     7    1
     2     7     8    1
     3     7     9    1
     4     9    10    1
     5    10    11    1
     6    11    12    1
     7    11    13    1
     8    11    14    1
     9    14    15   ar
    10    15    16   ar
    11    16     1    1
    12     1    20    1
    13    20    21   ar
    14    21    22   ar
    15    22    23   ar
    16    23    26    1
    17    26    27    1
    18    27    28    1
    19    28    29   ar
    20    28    30   ar
    21    23    24   ar
    22    24    25   ar
    23     1     2    1
    24     2     3    1
    25     3     4    1
    26     4     5    1
    27    16    17   ar
    28    17    18   ar
    29    18    19   ar
    30    19     7    1
    31    19    14   ar
    32     5     1    1
    33    25    20   ar
@<TRIPOS>MOLECULE
*****
 30 33 0 0 0
SMALL
GASTEIGER

@<TRIPOS>ATOM
      1 C          63.4004   83.8417   12.2316 C.3     1  UNL1        0.1155
      2 S          63.8029   82.5917   12.9566 S.3     1  UNL1       -0.1226
      3 C          64.0635   81.5261   11.9337 C.3     1  UNL1        0.0706
      4 C          63.8220   82.1173   10.5765 C.3     1  UNL1        0.0706
      5 S          63.4122   83.5485   10.7606 S.3     1  UNL1       -0.1226
      6 C          62.5684   89.6818   11.6608 C.3     1  UNL1        0.0044
      7 C          61.7066   89.3264   10.4856 C.3     1  UNL1        0.0186
      8 C          61.5824   90.8211   10.4572 C.3     1  UNL1        0.0044
      9 C          60.8017   89.4902    9.3005 C.3     1  UNL1        0.0044
     10 C          60.3202   88.2827    8.5520 C.3     1  UNL1        0.0044
     11 C          60.7437   86.9116    8.9885 C.3     1  UNL1        0.0186
     12 C          59.8818   86.5562    7.8133 C.3     1  UNL1        0.0044
     13 C          60.8678   85.4169    9.0169 C.3     1  UNL1        0.0044
     14 C          61.6486   86.7478   10.1736 C.ar    1  UNL1       -0.0270
     15 C          62.0720   85.3766   10.6101 C.ar    1  UNL1       -0.0070
     16 C          62.9769   85.2129   11.7951 C.ar    1  UNL1       -0.0008
     17 C          63.4584   86.4203   12.5436 C.ar    1  UNL1       -0.0027
     18 C          63.0350   87.7915   12.1071 C.ar    1  UNL1       -0.0049
     19 C          62.1301   87.9552   10.9221 C.ar    1  UNL1       -0.0268
     20 C          63.3001   84.4215   13.6114 C.ar    1  UNL1       -0.0005
     21 C          64.5212   84.9779   14.2818 C.ar    1  UNL1       -0.0027
     22 C          64.4207   85.5578   15.6616 C.ar    1  UNL1       -0.0045
     23 C          63.0993   85.5813   16.3709 C.ar    1  UNL1       -0.0218
     24 C          61.8782   85.0249   15.7005 C.ar    1  UNL1       -0.0045
     25 C          61.9786   84.4450   14.3207 C.ar    1  UNL1       -0.0027
     26 C          62.9989   86.1611   17.7506 C.3     1  UNL1        0.0322
     27 C          62.8577   87.6433   17.9327 C.3     1  UNL1        0.0464
     28 C          62.7840   88.5426   16.7345 C.2     1  UNL1        0.0507
     29 O          61.4873   89.2039   16.3717 O.co2   1  UNL1       -0.5492
     30 O          64.0068   88.7805   15.8989 O.co2   1  UNL1       -0.5492
@<TRIPOS>UNITY_ATOM_ATTR
29 1
charge -1
@<TRIPOS>BOND
     1     6     7    1
     2     7     8    1
     3     7     9    1
     4     9    10    1
     5    10    11    1
     6    11    12    1
     7    11    13    1
     8    11    14    1
     9    14    15   ar
    10    15    16   ar
    11    16     1    1
    12     1    20    1
    13    20    21   ar
    14    21    22   ar
    15    22    23   ar
    16    23    26    1
    17    26    27    1
    18    27    28    1
    19    28    29   ar
    20    28    30   ar
    21    23    24   ar
    22    24    25   ar
    23     1     2    1
    24     2     3    1
    25     3     4    1
    26     4     5    1
    27    16    17   ar
    28    17    18   ar
    29    18    19   ar
    30    19     7    1
    31    19    14   ar
    32     5     1    1
    33    25    20   ar
@<TRIPOS>MOLECULE
*****
 30 33 0 0 0
SMALL
GASTEIGER

@<TRIPOS>ATOM
      1 C          64.7876   91.2839   14.7280 C.3     1  UNL1        0.1155
      2 S          65.4972   92.4984   15.2487 S.3     1  UNL1       -0.1226
      3 C          65.0293   92.7423   16.6528 C.3     1  UNL1        0.0706
      4 C          64.0305   91.6784   16.9999 C.3     1  UNL1        0.0706
      5 S          63.8810   90.7771   15.8103 S.3     1  UNL1       -0.1226
      6 C          63.3594   85.9105   12.6755 C.3     1  UNL1        0.0044
      7 C          62.6120   86.6466   11.6034 C.3     1  UNL1        0.0186
      8 C          62.3276   85.2317   11.1946 C.3     1  UNL1        0.0044
      9 C          61.7658   86.8913   10.3893 C.3     1  UNL1        0.0044
     10 C          61.4635   88.2953    9.9563 C.3     1  UNL1        0.0044
     11 C          62.0073   89.4546   10.7374 C.3     1  UNL1        0.0186
     12 C          61.2599   90.1907    9.6653 C.3     1  UNL1        0.0044
     13 C          62.2917   90.8696   11.1462 C.3     1  UNL1        0.0044
     14 C          62.8536   89.2099   11.9516 C.ar    1  UNL1       -0.0270
     15 C          63.3975   90.3692   12.7327 C.ar    1  UNL1       -0.0070
     16 C          64.2436   90.1245   13.9468 C.ar    1  UNL1       -0.0008
     17 C          64.5459   88.7206   14.3798 C.ar    1  UNL1       -0.0027
     18 C          64.0021   87.5613   13.5987 C.ar    1  UNL1       -0.0049
     19 C          63.1559   87.8060   12.3846 C.ar    1  UNL1       -0.0268
     20 C          65.5803   91.5483   13.4824 C.ar    1  UNL1       -0.0005
     21 C          64.8911   92.0441   12.2458 C.ar    1  UNL1       -0.0027
     22 C          65.6840   92.3085   11.0001 C.ar    1  UNL1       -0.0045
     23 C          67.1660   92.0771   10.9911 C.ar    1  UNL1       -0.0218
     24 C          67.8552   91.5813   12.2278 C.ar    1  UNL1       -0.0045
     25 C          67.0623   91.3169   13.4734 C.ar    1  UNL1       -0.0027
     26 C          67.9589   92.3415    9.7456 C.3     1  UNL1        0.0322
     27 C          68.4784   93.7206    9.4659 C.3     1  UNL1        0.0464
     28 C          67.5247   94.8731    9.3547 C.2     1  UNL1        0.0507
     29 O          67.0310   95.3108    8.0075 O.co2   1  UNL1       -0.5492
     30 O          67.0647   95.5879   10.5906 O.co2   1  UNL1       -0.5492
@<TRIPOS>UNITY_ATOM_ATTR
29 1
charge -1
@<TRIPOS>BOND
     1     6     7    1
     2     7     8    1
     3     7     9    1
     4     9    10    1
     5    10    11    1
     6    11    12    1
     7    11    13    1
     8    11    14    1
     9    14    15   ar
    10    15    16   ar
    11    16     1    1
    12     1    20    1
    13    20    21   ar
    14    21    22   ar
    15    22    23   ar
    16    23    26    1
    17    26    27    1
    18    27    28    1
    19    28    29   ar
    20    28    30   ar
    21    23    24   ar
    22    24    25   ar
    23     1     2    1
    24     2     3    1
    25     3     4    1
    26     4     5    1
    27    16    17   ar
    28    17    18   ar
    29    18    19   ar
    30    19     7    1
    31    19    14   ar
    32     5     1    1
    33    25    20   ar
@<TRIPOS>MOLECULE
*****
 30 33 0 0 0
SMALL
GASTEIGER

@<TRIPOS>ATOM
      1 C          64.2102   90.4343   13.1641 C.3     1  UNL1        0.1155
      2 S          64.1845   91.8318   12.6197 S.3     1  UNL1       -0.1226
      3 C          65.2670   92.6148   13.3017 C.3     1  UNL1        0.0706
      4 C          65.9617   91.7014   14.2675 C.3     1  UNL1        0.0706
      5 S          65.3086   90.3537   14.1825 S.3     1  UNL1       -0.1226
      6 C          63.9000   85.1630   15.8550 C.3     1  UNL1        0.0044
      7 C          63.3572   84.6593   14.5505 C.3     1  UNL1        0.0186
      8 C          63.3324   83.3905   15.3502 C.3     1  UNL1        0.0044
      9 C          62.8058   83.7151   13.5238 C.3     1  UNL1        0.0044
     10 C          62.4676   84.2145   12.1504 C.3     1  UNL1        0.0044
     11 C          62.6809   85.6582   11.8037 C.3     1  UNL1        0.0186
     12 C          62.1380   85.1546   10.4992 C.3     1  UNL1        0.0044
     13 C          62.7056   86.9271   11.0041 C.3     1  UNL1        0.0044
     14 C          63.2323   86.6026   12.8305 C.ar    1  UNL1       -0.0270
     15 C          63.4455   88.0463   12.4839 C.ar    1  UNL1       -0.0070
     16 C          63.9969   88.9905   13.5107 C.ar    1  UNL1       -0.0008
     17 C          64.3351   88.4911   14.8841 C.ar    1  UNL1       -0.0027
     18 C          64.1219   87.0474   15.2307 C.ar    1  UNL1       -0.0049
     19 C          63.5704   86.1031   14.2039 C.ar    1  UNL1       -0.0268
     20 C          63.0673   90.2131   12.2182 C.ar    1  UNL1       -0.0005
     21 C          61.6991   89.9095   12.7529 C.ar    1  UNL1       -0.0027
     22 C          60.5562   89.6883   11.8069 C.ar    1  UNL1       -0.0045
     23 C          60.7814   89.7707   10.3262 C.ar    1  UNL1       -0.0218
     24 C          62.1496   90.0743    9.7915 C.ar    1  UNL1       -0.0045
     25 C          63.2925   90.2955   10.7375 C.ar    1  UNL1       -0.0027
     26 C          59.6386   89.5495    9.3803 C.3     1  UNL1        0.0322
     27 C          59.8758   88.8728    8.0627 C.3     1  UNL1        0.0464
     28 C          59.7183   87.3859    7.9442 C.2     1  UNL1        0.0507
     29 O          58.3494   86.7726    7.9648 O.co2   1  UNL1       -0.5492
     30 O          60.9295   86.5120    7.8050 O.co2   1  UNL1       -0.5492
@<TRIPOS>UNITY_ATOM_ATTR
29 1
charge -1
@<TRIPOS>BOND
     1     6     7    1
     2     7     8    1
     3     7     9    1
     4     9    10    1
     5    10    11    1
     6    11    12    1
     7    11    13    1
     8    11    14    1
     9    14    15   ar
    10    15    16   ar
    11    16     1    1
    12     1    20    1
    13    20    21   ar
    14    21    22   ar
    15    22    23   ar
    16    23    26    1
    17    26    27    1
    18    27    28    1
    19    28    29   ar
    20    28    30   ar
    21    23    24   ar
    22    24    25   ar
    23     1     2    1
    24     2     3    1
    25     3     4    1
    26     4     5    1
    27    16    17   ar
    28    17    18   ar
    29    18    19   ar
    30    19     7    1
    31    19    14   ar
    32     5     1    1
    33    25    20   ar
@<TRIPOS>MOLECULE
*****
 30 33 0 0 0
SMALL
GASTEIGER

@<TRIPOS>ATOM
      1 C          64.5704   91.1943   12.9794 C.3     1  UNL1        0.1155
      2 S          64.7137   92.1232   11.8104 S.3     1  UNL1       -0.1226
      3 C          65.8834   93.0242   12.0750 C.3     1  UNL1        0.0706
      4 C          66.4631   92.6521   13.4074 C.3     1  UNL1        0.0706
      5 S          65.6517   91.5211   13.9664 S.3     1  UNL1       -0.1226
      6 C          62.9519   88.2518   17.8628 C.3     1  UNL1        0.0044
      7 C          63.0258   87.0228   17.0060 C.3     1  UNL1        0.0186
      8 C          62.6140   86.4067   18.3102 C.3     1  UNL1        0.0044
      9 C          62.9566   85.5799   16.6021 C.3     1  UNL1        0.0044
     10 C          63.2736   85.1798   15.1916 C.3     1  UNL1        0.0044
     11 C          63.6597   86.2226   14.1850 C.3     1  UNL1        0.0186
     12 C          63.7336   84.9935   13.3282 C.3     1  UNL1        0.0044
     13 C          64.0716   86.8386   12.8808 C.3     1  UNL1        0.0044
     14 C          63.7289   87.6656   14.5888 C.ar    1  UNL1       -0.0270
     15 C          64.1151   88.7084   13.5822 C.ar    1  UNL1       -0.0070
     16 C          64.1843   90.1513   13.9861 C.ar    1  UNL1       -0.0008
     17 C          63.8673   90.5514   15.3965 C.ar    1  UNL1       -0.0027
     18 C          63.4811   89.5086   16.4032 C.ar    1  UNL1       -0.0049
     19 C          63.4120   88.0657   15.9993 C.ar    1  UNL1       -0.0268
     20 C          63.4085   90.6494   12.2029 C.ar    1  UNL1       -0.0005
     21 C          62.1238   90.3234   12.9052 C.ar    1  UNL1       -0.0027
     22 C          60.9618   89.7785   12.1286 C.ar    1  UNL1       -0.0045
     23 C          61.0846   89.5596   10.6498 C.ar    1  UNL1       -0.0218
     24 C          62.3693   89.8857    9.9475 C.ar    1  UNL1       -0.0045
     25 C          63.5313   90.4306   10.7241 C.ar    1  UNL1       -0.0027
     26 C          59.9227   89.0148    9.8732 C.3     1  UNL1        0.0322
     27 C          60.1469   88.3878    8.5291 C.3     1  UNL1        0.0464
     28 C          59.9869   86.9064    8.3565 C.2     1  UNL1        0.0507
     29 O          60.7739   85.9618    9.2159 O.co2   1  UNL1       -0.5492
     30 O          59.0399   86.3695    7.3245 O.co2   1  UNL1       -0.5492
@<TRIPOS>UNITY_ATOM_ATTR
29 1
charge -1
@<TRIPOS>BOND
     1     6     7    1
     2     7     8    1
     3     7     9    1
     4     9    10    1
     5    10    11    1
     6    11    12    1
     7    11    13    1
     8    11    14    1
     9    14    15   ar
    10    15    16   ar
    11    16     1    1
    12     1    20    1
    13    20    21   ar
    14    21    22   ar
    15    22    23   ar
    16    23    26    1
    17    26    27    1
    18    27    28    1
    19    28    29   ar
    20    28    30   ar
    21    23    24   ar
    22    24    25   ar
    23     1     2    1
    24     2     3    1
    25     3     4    1
    26     4     5    1
    27    16    17   ar
    28    17    18   ar
    29    18    19   ar
    30    19     7    1
    31    19    14   ar
    32     5     1    1
    33    25    20   ar
@<TRIPOS>MOLECULE
*****
 30 33 0 0 0
SMALL
GASTEIGER

@<TRIPOS>ATOM
      1 C          63.7352   84.8792   13.3932 C.3     1  UNL1        0.1155
      2 S          64.4642   83.9155   14.2821 S.3     1  UNL1       -0.1226
      3 C          64.9249   84.6638   15.4976 C.3     1  UNL1        0.0706
      4 C          64.4808   86.0899   15.3602 C.3     1  UNL1        0.0706
      5 S          63.7455   86.2230   14.0595 S.3     1  UNL1       -0.1226
      6 C          60.3028   86.3159    8.7803 C.3     1  UNL1        0.0044
      7 C          60.6771   87.7345    9.0926 C.3     1  UNL1        0.0186
      8 C          59.7826   87.9557    7.9090 C.3     1  UNL1        0.0044
      9 C          60.7409   89.2299    8.9938 C.3     1  UNL1        0.0044
     10 C          61.5691   90.0114    9.9701 C.3     1  UNL1        0.0044
     11 C          62.3336   89.2976   11.0452 C.3     1  UNL1        0.0186
     12 C          62.7080   90.7163   11.3575 C.3     1  UNL1        0.0044
     13 C          63.2282   89.0765   12.2289 C.3     1  UNL1        0.0044
     14 C          62.2699   87.8022   11.1441 C.ar    1  UNL1       -0.0270
     15 C          63.0344   87.0884   12.2192 C.ar    1  UNL1       -0.0070
     16 C          62.9707   85.5931   12.3180 C.ar    1  UNL1       -0.0008
     17 C          62.1425   84.8115   11.3417 C.ar    1  UNL1       -0.0027
     18 C          61.3780   85.5253   10.2666 C.ar    1  UNL1       -0.0049
     19 C          61.4417   87.0207   10.1678 C.ar    1  UNL1       -0.0268
     20 C          63.5651   83.6846   12.5022 C.ar    1  UNL1       -0.0005
     21 C          64.3683   83.5695   11.2405 C.ar    1  UNL1       -0.0027
     22 C          64.1982   82.3748   10.3494 C.ar    1  UNL1       -0.0045
     23 C          63.2249   81.2953   10.7200 C.ar    1  UNL1       -0.0218
     24 C          62.4217   81.4104   11.9817 C.ar    1  UNL1       -0.0045
     25 C          62.5919   82.6050   12.8727 C.ar    1  UNL1       -0.0027
     26 C          63.0548   80.1007    9.8290 C.3     1  UNL1        0.0322
     27 C          62.6781   78.7735   10.4179 C.3     1  UNL1        0.0464
     28 C          63.3941   77.5295    9.9824 C.2     1  UNL1        0.0507
     29 O          64.4469   77.6041    8.9164 O.co2   1  UNL1       -0.5492
     30 O          63.0573   76.2106   10.6127 O.co2   1  UNL1       -0.5492
@<TRIPOS>UNITY_ATOM_ATTR
29 1
charge -1
@<TRIPOS>BOND
     1     6     7    1
     2     7     8    1
     3     7     9    1
     4     9    10    1
     5    10    11    1
     6    11    12    1
     7    11    13    1
     8    11    14    1
     9    14    15   ar
    10    15    16   ar
    11    16     1    1
    12     1    20    1
    13    20    21   ar
    14    21    22   ar
    15    22    23   ar
    16    23    26    1
    17    26    27    1
    18    27    28    1
    19    28    29   ar
    20    28    30   ar
    21    23    24   ar
    22    24    25   ar
    23     1     2    1
    24     2     3    1
    25     3     4    1
    26     4     5    1
    27    16    17   ar
    28    17    18   ar
    29    18    19   ar
    30    19     7    1
    31    19    14   ar
    32     5     1    1
    33    25    20   ar
