@<TRIPOS>MOLECULE
*****
 42 48 0 0 0
SMALL
GASTEIGER

@<TRIPOS>ATOM
      1 C          70.9920   69.4787   13.3924 C.3     1  UNL1        0.0000
      2 C          71.3743   69.8153   14.8033 C.3     1  UNL1        0.0001
      3 C          71.0767   68.3530   14.9558 C.3     1  UNL1        0.0000
      4 C          71.6532   69.6440   16.2671 C.3     1  UNL1        0.0005
      5 C          72.0969   70.8181   17.0885 C.3     1  UNL1        0.0087
      6 C          72.2617   72.1635   16.4460 C.3     1  UNL1        0.0709
      7 C          72.7054   73.3376   17.2674 C.3     1  UNL1        0.0088
      8 C          72.8701   74.6829   16.6249 C.3     1  UNL1        0.0027
      9 C          72.5912   74.8543   15.1610 C.3     1  UNL1        0.0251
     10 C          72.3122   75.0255   13.6972 C.3     1  UNL1        0.0023
     11 C          72.7559   76.1996   14.5186 C.3     1  UNL1        0.0174
     12 C          73.0349   76.0284   15.9824 C.3     1  UNL1        0.0041
     13 C          73.1996   77.3737   15.3399 C.3     1  UNL1        0.0038
     14 C          73.3644   78.7191   14.6974 C.3     1  UNL1        0.0014
     15 C          73.0854   78.8904   13.2336 C.3     1  UNL1        0.0141
     16 C          73.2502   80.2358   12.5911 C.3     1  UNL1        0.0568
     17 C          73.5477   81.6981   12.4387 C.3     1  UNL1        0.0077
     18 C          73.6325   80.5723   14.0021 C.3     1  UNL1        0.0077
     19 C          72.9712   80.4071   11.1272 C.2     1  UNL1        0.1815
     20 O          73.1360   81.7525   10.4848 O.2     1  UNL1       -0.2907
     21 C          72.5275   79.2330   10.3059 C.2     1  UNL1        0.0990
     22 C          72.3628   77.8876   10.9484 C.2     1  UNL1       -0.0098
     23 C          72.6417   77.7163   12.4122 C.3     1  UNL1        0.0349
     24 C          72.1980   76.5422   11.5909 C.3     1  UNL1        0.0085
     25 C          72.4770   76.3710   13.0547 C.2     1  UNL1       -0.0387
     26 C          72.0332   75.1969   12.2333 C.2     1  UNL1        0.0309
     27 C          71.8685   73.8514   12.8759 C.2     1  UNL1        0.1884
     28 O          71.5756   73.2431   12.1599 O.2     1  UNL1       -0.2897
     29 C          72.1475   73.6802   14.3397 C.3     1  UNL1        0.1159
     30 C          71.9827   72.3347   14.9822 C.3     1  UNL1        0.0319
     31 C          71.5390   71.1607   14.1608 C.3     1  UNL1        0.0025
     32 N          71.7458   72.2930   13.9343 N.am    1  UNL1       -0.2777
     33 C          71.8118   71.4173   15.1504 C.2     1  UNL1        0.2249
     34 O          71.5834   70.5808   14.9697 O.2     1  UNL1       -0.2749
     35 C          71.3481   71.8578   12.5551 C.3     1  UNL1        0.0756
     36 C          69.8968   71.7351   12.1966 C.3     1  UNL1        0.0198
     37 C          69.4990   71.2999   10.8172 C.3     1  UNL1        0.0017
     38 C          70.5527   70.9873    9.7964 C.3     1  UNL1        0.0001
     39 C          72.0042   71.1100   10.1549 C.3     1  UNL1        0.0017
     40 C          72.4018   71.5452   11.5342 C.3     1  UNL1        0.0198
     41 C          72.2485   79.4043    8.8421 C.1     1  UNL1        0.1030
     42 N          71.9696   79.5756    7.3783 N.1     1  UNL1       -0.1907
@<TRIPOS>BOND
     1     1     2    1
     2     2     3    1
     3     2     4    1
     4     4     5    1
     5     6     5    1
     6     6     7    1
     7     7     8    1
     8     8     9    1
     9     9    10    1
    10     9    11    1
    11    11    12    1
    12    11    13    1
    13    13    14    1
    14    15    14    1
    15    15    16    1
    16    16    17    1
    17    16    18    1
    18    16    19    1
    19    19    20    2
    20    19    21    1
    21    21    41    1
    22    41    42    3
    23    21    22    2
    24    22    23    1
    25    23    24    1
    26    23    25    1
    27    25    26    2
    28    26    27    1
    29    27    28    2
    30    27    29    1
    31    29    30    1
    32    30    31    1
    33    29    32    1
    34    32    35    1
    35    35    36    1
    36    36    37    1
    37    37    38    1
    38    38    39    1
    39    39    40    1
    40    32    33   am
    41    33    34    2
    42    31     2    1
    43    40    35    1
    44    30     6    1
    45    33     6    1
    46    29     9    1
    47    25    11    1
    48    23    15    1
@<TRIPOS>MOLECULE
*****
 42 48 0 0 0
SMALL
GASTEIGER

@<TRIPOS>ATOM
      1 C          56.1021   96.2994   -5.6700 C.3     1  UNL1        0.0000
      2 C          57.4615   96.2907   -6.3040 C.3     1  UNL1        0.0001
      3 C          56.6512   96.8559   -7.4328 C.3     1  UNL1        0.0000
      4 C          58.5395   96.4783   -7.3300 C.3     1  UNL1        0.0005
      5 C          59.9556   96.1038   -7.0071 C.3     1  UNL1        0.0087
      6 C          60.2938   95.5416   -5.6582 C.3     1  UNL1        0.0709
      7 C          61.7099   95.1671   -5.3353 C.3     1  UNL1        0.0088
      8 C          62.0481   94.6049   -3.9864 C.3     1  UNL1        0.0027
      9 C          60.9701   94.4173   -2.9604 C.3     1  UNL1        0.0251
     10 C          59.8921   94.2297   -1.9344 C.3     1  UNL1        0.0023
     11 C          61.3082   93.8552   -1.6115 C.3     1  UNL1        0.0174
     12 C          62.3862   94.0428   -2.6375 C.3     1  UNL1        0.0041
     13 C          62.7244   93.4806   -1.2886 C.3     1  UNL1        0.0038
     14 C          63.0625   92.9184    0.0604 C.3     1  UNL1        0.0014
     15 C          61.9845   92.7308    1.0864 C.3     1  UNL1        0.0141
     16 C          62.3227   92.1687    2.4353 C.3     1  UNL1        0.0568
     17 C          63.1330   91.6035    3.5641 C.3     1  UNL1        0.0077
     18 C          63.6821   92.1600    1.8013 C.3     1  UNL1        0.0077
     19 C          61.2447   91.9811    3.4614 C.2     1  UNL1        0.1815
     20 O          61.5829   91.4189    4.8103 O.2     1  UNL1       -0.2907
     21 C          59.8286   92.3556    3.1385 C.2     1  UNL1        0.0990
     22 C          59.4904   92.9178    1.7895 C.2     1  UNL1       -0.0098
     23 C          60.5684   93.1054    0.7635 C.3     1  UNL1        0.0349
     24 C          59.1523   93.4799    0.4406 C.3     1  UNL1        0.0085
     25 C          60.2302   93.6675   -0.5854 C.2     1  UNL1       -0.0387
     26 C          58.8141   94.0421   -0.9083 C.2     1  UNL1        0.0309
     27 C          58.4760   94.6043   -2.2573 C.2     1  UNL1        0.1884
     28 O          57.5066   94.7740   -2.2451 O.2     1  UNL1       -0.2897
     29 C          59.5539   94.7919   -3.2833 C.3     1  UNL1        0.1159
     30 C          59.2158   95.3540   -4.6322 C.3     1  UNL1        0.0319
     31 C          57.7996   95.7286   -4.9551 C.3     1  UNL1        0.0025
     32 N          58.3391   95.2818   -4.0140 N.am    1  UNL1       -0.2777
     33 C          58.7662   95.7147   -5.3852 C.2     1  UNL1        0.2249
     34 O          58.0854   96.0155   -5.8653 O.2     1  UNL1       -0.2749
     35 C          56.9424   95.3304   -3.4694 C.3     1  UNL1        0.0756
     36 C          56.0345   94.1467   -3.6263 C.3     1  UNL1        0.0198
     37 C          54.6377   94.1954   -3.0816 C.3     1  UNL1        0.0017
     38 C          54.1488   95.4277   -2.3799 C.3     1  UNL1        0.0001
     39 C          55.0567   96.6115   -2.2230 C.3     1  UNL1        0.0017
     40 C          56.4535   96.5628   -2.7677 C.3     1  UNL1        0.0198
     41 C          58.7506   92.1680    4.1645 C.1     1  UNL1        0.1030
     42 N          57.6726   91.9804    5.1905 N.1     1  UNL1       -0.1907
@<TRIPOS>BOND
     1     1     2    1
     2     2     3    1
     3     2     4    1
     4     4     5    1
     5     6     5    1
     6     6     7    1
     7     7     8    1
     8     8     9    1
     9     9    10    1
    10     9    11    1
    11    11    12    1
    12    11    13    1
    13    13    14    1
    14    15    14    1
    15    15    16    1
    16    16    17    1
    17    16    18    1
    18    16    19    1
    19    19    20    2
    20    19    21    1
    21    21    41    1
    22    41    42    3
    23    21    22    2
    24    22    23    1
    25    23    24    1
    26    23    25    1
    27    25    26    2
    28    26    27    1
    29    27    28    2
    30    27    29    1
    31    29    30    1
    32    30    31    1
    33    29    32    1
    34    32    35    1
    35    35    36    1
    36    36    37    1
    37    37    38    1
    38    38    39    1
    39    39    40    1
    40    32    33   am
    41    33    34    2
    42    31     2    1
    43    40    35    1
    44    30     6    1
    45    33     6    1
    46    29     9    1
    47    25    11    1
    48    23    15    1
@<TRIPOS>MOLECULE
*****
 42 48 0 0 0
SMALL
GASTEIGER

@<TRIPOS>ATOM
      1 C          55.4919   93.5220   -5.6023 C.3     1  UNL1        0.0000
      2 C          56.2276   94.5284   -6.4365 C.3     1  UNL1        0.0001
      3 C          54.9950   94.3484   -7.2722 C.3     1  UNL1        0.0000
      4 C          56.5353   95.4722   -7.5610 C.3     1  UNL1        0.0005
      5 C          57.8199   96.2466   -7.5601 C.3     1  UNL1        0.0087
      6 C          58.7970   96.0770   -6.4347 C.3     1  UNL1        0.0709
      7 C          60.0817   96.8514   -6.4337 C.3     1  UNL1        0.0088
      8 C          61.0588   96.6818   -5.3083 C.3     1  UNL1        0.0027
      9 C          60.7512   95.7379   -4.1838 C.3     1  UNL1        0.0251
     10 C          60.4436   94.7941   -3.0594 C.3     1  UNL1        0.0023
     11 C          61.7282   95.5684   -3.0584 C.3     1  UNL1        0.0174
     12 C          62.0359   96.5123   -4.1829 C.3     1  UNL1        0.0041
     13 C          63.0129   96.3427   -3.0575 C.3     1  UNL1        0.0038
     14 C          63.9900   96.1731   -1.9320 C.3     1  UNL1        0.0014
     15 C          63.6824   95.2293   -0.8076 C.3     1  UNL1        0.0141
     16 C          64.6595   95.0597    0.3178 C.3     1  UNL1        0.0568
     17 C          65.8921   95.2397    1.1535 C.3     1  UNL1        0.0077
     18 C          65.3952   96.0661   -0.5164 C.3     1  UNL1        0.0077
     19 C          64.3519   94.1158    1.4424 C.2     1  UNL1        0.1815
     20 O          65.3289   93.9463    2.5678 O.2     1  UNL1       -0.2907
     21 C          63.0672   93.3415    1.4414 C.2     1  UNL1        0.0990
     22 C          62.0901   93.5111    0.3160 C.2     1  UNL1       -0.0098
     23 C          62.3977   94.4550   -0.8085 C.3     1  UNL1        0.0349
     24 C          61.1130   93.6806   -0.8094 C.3     1  UNL1        0.0085
     25 C          61.4206   94.6245   -1.9339 C.2     1  UNL1       -0.0387
     26 C          60.1360   93.8502   -1.9348 C.2     1  UNL1        0.0309
     27 C          59.1589   94.0197   -3.0603 C.2     1  UNL1        0.1884
     28 O          58.4024   93.4247   -2.8546 O.2     1  UNL1       -0.2897
     29 C          59.4665   94.9636   -4.1847 C.3     1  UNL1        0.1159
     30 C          58.4894   95.1332   -5.3102 C.3     1  UNL1        0.0319
     31 C          57.2047   94.3589   -5.3111 C.3     1  UNL1        0.0025
     32 N          58.1252   94.4258   -4.5870 N.am    1  UNL1       -0.2777
     33 C          57.7387   95.0686   -5.8860 C.2     1  UNL1        0.2249
     34 O          56.9499   94.7869   -6.1738 O.2     1  UNL1       -0.2749
     35 C          57.3131   93.4216   -3.8243 C.3     1  UNL1        0.0756
     36 C          57.3867   91.9675   -4.1854 C.3     1  UNL1        0.0198
     37 C          56.5745   90.9632   -3.4226 C.3     1  UNL1        0.0017
     38 C          55.6887   91.4130   -2.2987 C.3     1  UNL1        0.0001
     39 C          55.6150   92.8671   -1.9377 C.3     1  UNL1        0.0017
     40 C          56.4273   93.8713   -2.7005 C.3     1  UNL1        0.0198
     41 C          62.7596   92.3977    2.5659 C.1     1  UNL1        0.1030
     42 N          62.4519   91.4538    3.6904 N.1     1  UNL1       -0.1907
@<TRIPOS>BOND
     1     1     2    1
     2     2     3    1
     3     2     4    1
     4     4     5    1
     5     6     5    1
     6     6     7    1
     7     7     8    1
     8     8     9    1
     9     9    10    1
    10     9    11    1
    11    11    12    1
    12    11    13    1
    13    13    14    1
    14    15    14    1
    15    15    16    1
    16    16    17    1
    17    16    18    1
    18    16    19    1
    19    19    20    2
    20    19    21    1
    21    21    41    1
    22    41    42    3
    23    21    22    2
    24    22    23    1
    25    23    24    1
    26    23    25    1
    27    25    26    2
    28    26    27    1
    29    27    28    2
    30    27    29    1
    31    29    30    1
    32    30    31    1
    33    29    32    1
    34    32    35    1
    35    35    36    1
    36    36    37    1
    37    37    38    1
    38    38    39    1
    39    39    40    1
    40    32    33   am
    41    33    34    2
    42    31     2    1
    43    40    35    1
    44    30     6    1
    45    33     6    1
    46    29     9    1
    47    25    11    1
    48    23    15    1
