@<TRIPOS>MOLECULE
*****
 44 48 0 0 0
SMALL
GASTEIGER

@<TRIPOS>ATOM
      1 C          59.9793   89.1114   10.7213 C.3     1  UNL1        0.1443
      2 O          59.3454   90.1522   11.5959 O.3     1  UNL1       -0.3813
      3 H          58.8077   89.7185   12.2768 H       1  UNL1        0.2105
      4 C          60.8660   89.5256    9.5847 C.3     1  UNL1        0.1041
      5 C          59.4471   89.2964    7.4204 C.2     1  UNL1        0.2527
      6 O          59.2224   87.8441    7.7215 O.2     1  UNL1       -0.2724
      7 N          60.2689   90.1371    8.3519 N.am    1  UNL1       -0.3012
      8 H          60.4163   91.0902    8.1543 H       1  UNL1        0.1495
      9 C          58.8500   89.9078    6.1877 C.3     1  UNL1        0.2269
     10 C          59.1492   92.0129    4.6947 C.3     1  UNL1        0.1748
     11 O          59.6998   90.7460    5.2791 O.3     1  UNL1       -0.3418
     12 C          62.3498   89.3284    9.6807 C.3     1  UNL1        0.0484
     13 C          63.1219   89.9748   10.7925 C.ar    1  UNL1       -0.0204
     14 C          63.2384   89.2897   12.1218 C.ar    1  UNL1       -0.0041
     15 C          64.0105   89.9360   13.2336 C.ar    1  UNL1        0.0017
     16 C          64.6662   91.2674   13.0161 C.ar    1  UNL1        0.0238
     17 C          64.5498   91.9526   11.6867 C.ar    1  UNL1        0.0017
     18 C          63.7777   91.3063   10.5749 C.ar    1  UNL1       -0.0041
     19 C          65.4383   91.9138   14.1279 C.ar    1  UNL1        0.1108
     20 N          65.0511   91.9296   15.5770 N.ar    1  UNL1       -0.2368
     21 C          66.1067   92.6834   16.3304 C.ar    1  UNL1        0.1064
     22 C          67.1461   93.1333   15.3470 C.ar    1  UNL1        0.0575
     23 S          66.7330   92.6576   13.9858 S.2     1  UNL1       -0.0659
     24 C          59.7264   87.6562   10.9835 C.3     1  UNL1        0.1001
     25 N          60.8063   86.8027   11.5795 N.3     1  UNL1       -0.2928
     26 H          60.3594   86.2056   12.2752 H       1  UNL1        0.1236
     27 C          61.6241   85.9047   10.6992 C.3     1  UNL1        0.0849
     28 C          61.3847   85.8853    9.2186 C.3     1  UNL1        0.0604
     29 C          62.2024   84.9873    8.3383 C.3     1  UNL1        0.1363
     30 C          61.2677   85.6989    7.4056 C.3     1  UNL1        0.0402
     31 C          61.8639   84.9598    6.2443 C.3     1  UNL1        0.0072
     32 C          62.7986   84.2482    7.1771 C.3     1  UNL1        0.0402
     33 O          63.2596   84.1087    8.9387 O.3     1  UNL1       -0.4676
     34 C          63.4990   84.1281   10.4194 C.ar    1  UNL1        0.2216
     35 N          64.5561   83.2494   11.0198 N.ar    1  UNL1       -0.2107
     36 C          64.7955   83.2688   12.5004 C.ar    1  UNL1        0.0977
     37 C          63.9777   84.1669   13.3807 C.ar    1  UNL1       -0.0031
     38 C          62.9206   85.0455   12.7803 C.ar    1  UNL1       -0.0011
     39 C          62.6812   85.0261   11.2996 C.ar    1  UNL1        0.0449
     40 C          64.2171   84.1863   14.8613 C.3     1  UNL1        0.0279
     41 C          63.7915   85.3729   15.6744 C.3     1  UNL1        0.0041
     42 C          62.6094   84.6013   16.1816 C.3     1  UNL1        0.0003
     43 C          64.9736   86.1445   15.1672 C.3     1  UNL1        0.0003
     44 C          63.3658   86.5594   16.4874 C.3     1  UNL1        0.0003
@<TRIPOS>BOND
     1    10    11    1
     2    11     9    1
     3     9     5    1
     4     5     6    2
     5     5     7   am
     6     7     4    1
     7     4    12    1
     8    12    13    1
     9    13    14   ar
    10    14    15   ar
    11    15    16   ar
    12    16    19    1
    13    19    20   ar
    14    20    21   ar
    15    21    22   ar
    16    22    23   ar
    17    16    17   ar
    18    17    18   ar
    19     4     1    1
    20     1     2    1
    21     1    24    1
    22    24    25    1
    23    27    25    1
    24    27    28    1
    25    28    29    1
    26    29    30    1
    27    30    31    1
    28    31    32    1
    29    29    33    1
    30    33    34    1
    31    34    35   ar
    32    35    36   ar
    33    36    37   ar
    34    37    40    1
    35    40    41    1
    36    41    42    1
    37    41    43    1
    38    41    44    1
    39    37    38   ar
    40    38    39   ar
    41    18    13   ar
    42    39    27    1
    43    23    19   ar
    44    32    29    1
    45    39    34   ar
    46     7     8    1
    47     2     3    1
    48    25    26    1
@<TRIPOS>MOLECULE
*****
 44 48 0 0 0
SMALL
GASTEIGER

@<TRIPOS>ATOM
      1 C          61.1034   86.4165    9.0688 C.3     1  UNL1        0.1443
      2 O          61.1545   85.9321    7.6501 O.3     1  UNL1       -0.3813
      3 H          61.3577   84.9837    7.6393 H       1  UNL1        0.2105
      4 C          60.8049   87.8575    9.3591 C.3     1  UNL1        0.1041
      5 C          59.1083   88.3782    7.4616 C.2     1  UNL1        0.2527
      6 O          58.3852   87.0975    7.7567 O.2     1  UNL1       -0.2724
      7 N          60.3181   88.7582    8.2628 N.am    1  UNL1       -0.3012
      8 H          60.7927   89.5987    8.0692 H       1  UNL1        0.1495
      9 C          58.6216   89.2789    6.3654 C.3     1  UNL1        0.2269
     10 C          59.0182   91.4797    5.0427 C.3     1  UNL1        0.1748
     11 O          59.5601   90.2612    5.7295 O.3     1  UNL1       -0.3418
     12 C          60.9932   88.3978   10.7456 C.3     1  UNL1        0.0484
     13 C          62.0001   89.4805   10.9984 C.ar    1  UNL1       -0.0204
     14 C          62.5692   90.2585    9.8492 C.ar    1  UNL1       -0.0041
     15 C          63.5762   91.3412   10.1020 C.ar    1  UNL1        0.0017
     16 C          64.0140   91.6458   11.5039 C.ar    1  UNL1        0.0238
     17 C          63.4449   90.8677   12.6532 C.ar    1  UNL1        0.0017
     18 C          62.4380   89.7850   12.4004 C.ar    1  UNL1       -0.0041
     19 C          65.0210   92.7284   11.7566 C.ar    1  UNL1        0.1108
     20 N          65.6123   93.0893   13.0871 N.ar    1  UNL1       -0.2368
     21 C          66.5702   94.2242   12.8760 C.ar    1  UNL1        0.1064
     22 C          66.5709   94.5646   11.4151 C.ar    1  UNL1        0.0575
     23 S          65.6134   93.6401   10.7233 S.2     1  UNL1       -0.0659
     24 C          61.3509   85.4597   10.1973 C.3     1  UNL1        0.1001
     25 N          62.7445   85.2502   10.7111 N.3     1  UNL1       -0.2928
     26 H          63.0955   86.1658   10.9919 H       1  UNL1        0.1236
     27 C          62.9872   84.3213   11.8636 C.3     1  UNL1        0.0849
     28 C          62.7240   82.8525   11.7113 C.3     1  UNL1        0.0604
     29 C          62.9667   81.9235   12.8637 C.3     1  UNL1        0.1363
     30 C          62.4749   81.0437   11.7528 C.3     1  UNL1        0.0402
     31 C          62.5944   79.8462   12.6483 C.3     1  UNL1        0.0072
     32 C          63.0863   80.7260   13.7592 C.3     1  UNL1        0.0402
     33 O          63.4727   82.4635   14.1685 O.3     1  UNL1       -0.4676
     34 C          63.7360   83.9323   14.3208 C.ar    1  UNL1        0.2216
     35 N          64.2420   84.4722   15.6256 N.ar    1  UNL1       -0.2107
     36 C          64.5052   85.9410   15.7779 C.ar    1  UNL1        0.0977
     37 C          64.2625   86.8700   14.6254 C.ar    1  UNL1       -0.0031
     38 C          63.7565   86.3301   13.3207 C.ar    1  UNL1       -0.0011
     39 C          63.4932   84.8612   13.1684 C.ar    1  UNL1        0.0449
     40 C          64.5257   88.3388   14.7777 C.3     1  UNL1        0.0279
     41 C          63.7849   89.1300   15.8148 C.3     1  UNL1        0.0041
     42 C          64.4387   90.3871   15.3227 C.3     1  UNL1        0.0003
     43 C          63.1311   87.8727   16.3069 C.3     1  UNL1        0.0003
     44 C          63.0442   89.9211   16.8518 C.3     1  UNL1        0.0003
@<TRIPOS>BOND
     1    10    11    1
     2    11     9    1
     3     9     5    1
     4     5     6    2
     5     5     7   am
     6     7     4    1
     7     4    12    1
     8    12    13    1
     9    13    14   ar
    10    14    15   ar
    11    15    16   ar
    12    16    19    1
    13    19    20   ar
    14    20    21   ar
    15    21    22   ar
    16    22    23   ar
    17    16    17   ar
    18    17    18   ar
    19     4     1    1
    20     1     2    1
    21     1    24    1
    22    24    25    1
    23    27    25    1
    24    27    28    1
    25    28    29    1
    26    29    30    1
    27    30    31    1
    28    31    32    1
    29    29    33    1
    30    33    34    1
    31    34    35   ar
    32    35    36   ar
    33    36    37   ar
    34    37    40    1
    35    40    41    1
    36    41    42    1
    37    41    43    1
    38    41    44    1
    39    37    38   ar
    40    38    39   ar
    41    18    13   ar
    42    39    27    1
    43    23    19   ar
    44    32    29    1
    45    39    34   ar
    46     7     8    1
    47     2     3    1
    48    25    26    1
@<TRIPOS>MOLECULE
*****
 44 48 0 0 0
SMALL
GASTEIGER

@<TRIPOS>ATOM
      1 C          60.8291   88.9164   10.9932 C.3     1  UNL1        0.1443
      2 O          59.6410   88.2816   11.6532 O.3     1  UNL1       -0.3813
      3 H          59.6022   88.5565   12.5826 H       1  UNL1        0.2105
      4 C          61.1145   88.6490    9.5451 C.3     1  UNL1        0.1041
      5 C          59.4281   88.5100    7.5737 C.2     1  UNL1        0.2527
      6 O          59.3718   87.0188    7.7270 O.2     1  UNL1       -0.2724
      7 N          60.2994   89.3250    8.4827 N.am    1  UNL1       -0.3012
      8 H          60.3364   90.3036    8.3821 H       1  UNL1        0.1495
      9 C          58.6131   89.1860    6.5113 C.3     1  UNL1        0.2269
     10 C          58.3436   91.3984    5.1760 C.3     1  UNL1        0.1748
     11 O          59.2136   90.2924    5.6956 O.3     1  UNL1       -0.3418
     12 C          62.2150   87.7055    9.1595 C.3     1  UNL1        0.0484
     13 C          62.4129   86.4310    9.9252 C.ar    1  UNL1       -0.0204
     14 C          62.7912   85.1725    9.2019 C.ar    1  UNL1       -0.0041
     15 C          62.9891   83.8980    9.9676 C.ar    1  UNL1        0.0017
     16 C          62.8087   83.8818   11.4566 C.ar    1  UNL1        0.0238
     17 C          62.4304   85.1403   12.1799 C.ar    1  UNL1        0.0017
     18 C          62.2325   86.4149   11.4142 C.ar    1  UNL1       -0.0041
     19 C          63.0067   82.6073   12.2223 C.ar    1  UNL1        0.1108
     20 N          62.5314   81.2465   11.8070 N.ar    1  UNL1       -0.2368
     21 C          62.9456   80.2679   12.8658 C.ar    1  UNL1        0.1064
     22 C          63.6768   81.0240   13.9353 C.ar    1  UNL1        0.0575
     23 S          63.7145   82.4698   13.5375 S.2     1  UNL1       -0.0659
     24 C          61.7317   89.8187   11.7814 C.3     1  UNL1        0.1001
     25 N          63.1397   90.0578   11.3227 N.3     1  UNL1       -0.2928
     26 H          63.0882   90.3185   10.3379 H       1  UNL1        0.1236
     27 C          63.9838   91.0953   12.0017 C.3     1  UNL1        0.0849
     28 C          64.6710   92.1524   11.1891 C.3     1  UNL1        0.0604
     29 C          65.5151   93.1899   11.8681 C.3     1  UNL1        0.1363
     30 C          65.5924   93.5218   10.4073 C.3     1  UNL1        0.0402
     31 C          66.4870   94.6849   10.7188 C.3     1  UNL1        0.0072
     32 C          66.4097   94.3530   12.1797 C.3     1  UNL1        0.0402
     33 O          65.6720   93.1703   13.3597 O.3     1  UNL1       -0.4676
     34 C          64.9848   92.1132   14.1723 C.ar    1  UNL1        0.2216
     35 N          65.1417   92.0937   15.6640 N.ar    1  UNL1       -0.2107
     36 C          64.4545   91.0366   16.4766 C.ar    1  UNL1        0.0977
     37 C          63.6104   89.9991   15.7976 C.ar    1  UNL1       -0.0031
     38 C          63.4535   90.0187   14.3060 C.ar    1  UNL1       -0.0011
     39 C          64.1407   91.0757   13.4933 C.ar    1  UNL1        0.0449
     40 C          62.9232   88.9420   16.6102 C.3     1  UNL1        0.0279
     41 C          63.3314   87.5053   16.4709 C.3     1  UNL1        0.0041
     42 C          64.0263   87.8278   15.1813 C.3     1  UNL1        0.0003
     43 C          62.6364   87.1828   17.7605 C.3     1  UNL1        0.0003
     44 C          63.7395   86.0687   16.3315 C.3     1  UNL1        0.0003
@<TRIPOS>BOND
     1    10    11    1
     2    11     9    1
     3     9     5    1
     4     5     6    2
     5     5     7   am
     6     7     4    1
     7     4    12    1
     8    12    13    1
     9    13    14   ar
    10    14    15   ar
    11    15    16   ar
    12    16    19    1
    13    19    20   ar
    14    20    21   ar
    15    21    22   ar
    16    22    23   ar
    17    16    17   ar
    18    17    18   ar
    19     4     1    1
    20     1     2    1
    21     1    24    1
    22    24    25    1
    23    27    25    1
    24    27    28    1
    25    28    29    1
    26    29    30    1
    27    30    31    1
    28    31    32    1
    29    29    33    1
    30    33    34    1
    31    34    35   ar
    32    35    36   ar
    33    36    37   ar
    34    37    40    1
    35    40    41    1
    36    41    42    1
    37    41    43    1
    38    41    44    1
    39    37    38   ar
    40    38    39   ar
    41    18    13   ar
    42    39    27    1
    43    23    19   ar
    44    32    29    1
    45    39    34   ar
    46     7     8    1
    47     2     3    1
    48    25    26    1
@<TRIPOS>MOLECULE
*****
 44 48 0 0 0
SMALL
GASTEIGER

@<TRIPOS>ATOM
      1 C          60.0474   87.2167    8.3895 C.3     1  UNL1        0.1443
      2 O          58.8823   86.2961    8.1773 O.3     1  UNL1       -0.3813
      3 H          59.1297   85.3956    8.4393 H       1  UNL1        0.2105
      4 C          59.9218   88.6742    8.0584 C.3     1  UNL1        0.1041
      5 C          60.8024   89.9968   10.1140 C.2     1  UNL1        0.2527
      6 O          59.7681   89.3401   10.9795 O.2     1  UNL1       -0.2724
      7 N          60.8792   89.6638    8.6534 N.am    1  UNL1       -0.3012
      8 H          61.5580   90.0948    8.0854 H       1  UNL1        0.1495
      9 C          61.7598   90.9863   10.7090 C.3     1  UNL1        0.2269
     10 C          64.1707   91.9544   10.6855 C.3     1  UNL1        0.1748
     11 O          62.9919   91.3860    9.9525 O.3     1  UNL1       -0.3418
     12 C          58.8387   89.1422    7.1322 C.3     1  UNL1        0.0484
     13 C          59.1502   90.1422    6.0584 C.ar    1  UNL1       -0.0204
     14 C          60.5554   90.2882    5.5545 C.ar    1  UNL1       -0.0041
     15 C          60.8670   91.2882    4.4807 C.ar    1  UNL1        0.0017
     16 C          59.7734   92.1421    3.9109 C.ar    1  UNL1        0.0238
     17 C          58.3681   91.9960    4.4148 C.ar    1  UNL1        0.0017
     18 C          58.0565   90.9961    5.4886 C.ar    1  UNL1       -0.0041
     19 C          60.0849   93.1421    2.8371 C.ar    1  UNL1        0.1108
     20 N          60.0522   94.6343    2.9857 N.ar    1  UNL1       -0.2368
     21 C          60.4310   95.2398    1.6667 C.ar    1  UNL1        0.1064
     22 C          60.6978   94.1218    0.7029 C.ar    1  UNL1        0.0575
     23 S          60.4839   92.8253    1.4263 S.2     1  UNL1       -0.0659
     24 C          61.3383   86.6796    8.9330 C.3     1  UNL1        0.1001
     25 N          61.9542   87.2990   10.1524 N.3     1  UNL1       -0.2928
     26 H          61.2292   87.8651   10.5932 H       1  UNL1        0.1236
     27 C          62.5342   86.4260   11.2255 C.3     1  UNL1        0.0849
     28 C          62.4971   84.9335   11.0798 C.3     1  UNL1        0.0604
     29 C          63.0770   84.0605   12.1528 C.3     1  UNL1        0.1363
     30 C          62.5621   83.1087   11.1141 C.3     1  UNL1        0.0402
     31 C          63.0245   81.9498   11.9467 C.3     1  UNL1        0.0072
     32 C          63.5395   82.9016   12.9854 C.3     1  UNL1        0.0402
     33 O          63.6941   84.6800   13.3716 O.3     1  UNL1       -0.4676
     34 C          63.7312   86.1724   13.5173 C.ar    1  UNL1        0.2216
     35 N          64.3483   86.7918   14.7362 N.ar    1  UNL1       -0.2107
     36 C          64.3855   88.2843   14.8819 C.ar    1  UNL1        0.0977
     37 C          63.8055   89.1573   13.8088 C.ar    1  UNL1       -0.0031
     38 C          63.1884   88.5378   12.5900 C.ar    1  UNL1       -0.0011
     39 C          63.1513   87.0454   12.4443 C.ar    1  UNL1        0.0449
     40 C          63.8426   90.6497   13.9545 C.3     1  UNL1        0.0279
     41 C          64.9337   91.2983   14.7539 C.3     1  UNL1        0.0041
     42 C          65.8372   91.2529   13.5574 C.3     1  UNL1        0.0003
     43 C          64.0301   91.3438   15.9504 C.3     1  UNL1        0.0003
     44 C          66.0247   91.9469   15.5532 C.3     1  UNL1        0.0003
@<TRIPOS>BOND
     1    10    11    1
     2    11     9    1
     3     9     5    1
     4     5     6    2
     5     5     7   am
     6     7     4    1
     7     4    12    1
     8    12    13    1
     9    13    14   ar
    10    14    15   ar
    11    15    16   ar
    12    16    19    1
    13    19    20   ar
    14    20    21   ar
    15    21    22   ar
    16    22    23   ar
    17    16    17   ar
    18    17    18   ar
    19     4     1    1
    20     1     2    1
    21     1    24    1
    22    24    25    1
    23    27    25    1
    24    27    28    1
    25    28    29    1
    26    29    30    1
    27    30    31    1
    28    31    32    1
    29    29    33    1
    30    33    34    1
    31    34    35   ar
    32    35    36   ar
    33    36    37   ar
    34    37    40    1
    35    40    41    1
    36    41    42    1
    37    41    43    1
    38    41    44    1
    39    37    38   ar
    40    38    39   ar
    41    18    13   ar
    42    39    27    1
    43    23    19   ar
    44    32    29    1
    45    39    34   ar
    46     7     8    1
    47     2     3    1
    48    25    26    1
@<TRIPOS>MOLECULE
*****
 44 48 0 0 0
SMALL
GASTEIGER

@<TRIPOS>ATOM
      1 C          60.2998   89.0174   10.7748 C.3     1  UNL1        0.1443
      2 O          59.3103   87.9886   11.2358 O.3     1  UNL1       -0.3813
      3 H          59.0212   88.1993   12.1375 H       1  UNL1        0.2105
      4 C          60.9022   88.9175    9.4048 C.3     1  UNL1        0.1041
      5 C          59.3697   88.8422    7.3082 C.2     1  UNL1        0.2527
      6 O          59.1405   87.3762    7.5284 O.2     1  UNL1       -0.2724
      7 N          60.2505   89.6128    8.2463 N.am    1  UNL1       -0.3012
      8 H          60.4010   90.5750    8.1018 H       1  UNL1        0.1495
      9 C          58.7180   89.5375    6.1498 C.3     1  UNL1        0.2269
     10 C          58.7121   91.7676    4.8169 C.3     1  UNL1        0.1748
     11 O          59.4594   90.6067    5.4033 O.3     1  UNL1       -0.3418
     12 C          62.1564   88.1224    9.1931 C.3     1  UNL1        0.0484
     13 C          62.3638   86.8367    9.9373 C.ar    1  UNL1       -0.0204
     14 C          62.5457   85.5537    9.1818 C.ar    1  UNL1       -0.0041
     15 C          62.7532   84.2680    9.9261 C.ar    1  UNL1        0.0017
     16 C          62.7787   84.2652   11.4258 C.ar    1  UNL1        0.0238
     17 C          62.5967   85.5482   12.1814 C.ar    1  UNL1        0.0017
     18 C          62.3893   86.8339   11.4372 C.ar    1  UNL1       -0.0041
     19 C          62.9861   82.9795   12.1700 C.ar    1  UNL1        0.1108
     20 N          62.6165   81.6096   11.6833 N.ar    1  UNL1       -0.2368
     21 C          63.0015   80.6214   12.7441 C.ar    1  UNL1        0.1064
     22 C          63.6090   81.3806   13.8863 C.ar    1  UNL1        0.0575
     23 S          63.5995   82.8380   13.5315 S.2     1  UNL1       -0.0659
     24 C          60.6868   90.1461   11.6838 C.3     1  UNL1        0.1001
     25 N          62.0217   90.8119   11.5266 N.3     1  UNL1       -0.2928
     26 H          61.8384   91.7865   11.2880 H       1  UNL1        0.1236
     27 C          62.9944   90.8211   12.6685 C.3     1  UNL1        0.0849
     28 C          62.6451   90.1368   13.9568 C.3     1  UNL1        0.0604
     29 C          63.6177   90.1460   15.0986 C.3     1  UNL1        0.1363
     30 C          62.4339   89.3752   15.6032 C.3     1  UNL1        0.0402
     31 C          63.1236   89.1782   16.9206 C.3     1  UNL1        0.0072
     32 C          64.3074   89.9490   16.4160 C.3     1  UNL1        0.0402
     33 O          64.9396   90.8396   14.9522 O.3     1  UNL1       -0.4676
     34 C          65.2889   91.5239   13.6639 C.ar    1  UNL1        0.2216
     35 N          66.6109   92.2175   13.5175 N.ar    1  UNL1       -0.2107
     36 C          66.9602   92.9018   12.2293 C.ar    1  UNL1        0.0977
     37 C          65.9875   92.8926   11.0874 C.ar    1  UNL1       -0.0031
     38 C          64.6656   92.1990   11.2338 C.ar    1  UNL1       -0.0011
     39 C          64.3163   91.5147   12.5221 C.ar    1  UNL1        0.0449
     40 C          66.3368   93.5769    9.7991 C.3     1  UNL1        0.0279
     41 C          66.8129   94.9993    9.8105 C.3     1  UNL1        0.0041
     42 C          65.5289   95.4238   10.4594 C.3     1  UNL1        0.0003
     43 C          68.0970   94.5748    9.1616 C.3     1  UNL1        0.0003
     44 C          67.2890   96.4217    9.8220 C.3     1  UNL1        0.0003
@<TRIPOS>BOND
     1    10    11    1
     2    11     9    1
     3     9     5    1
     4     5     6    2
     5     5     7   am
     6     7     4    1
     7     4    12    1
     8    12    13    1
     9    13    14   ar
    10    14    15   ar
    11    15    16   ar
    12    16    19    1
    13    19    20   ar
    14    20    21   ar
    15    21    22   ar
    16    22    23   ar
    17    16    17   ar
    18    17    18   ar
    19     4     1    1
    20     1     2    1
    21     1    24    1
    22    24    25    1
    23    27    25    1
    24    27    28    1
    25    28    29    1
    26    29    30    1
    27    30    31    1
    28    31    32    1
    29    29    33    1
    30    33    34    1
    31    34    35   ar
    32    35    36   ar
    33    36    37   ar
    34    37    40    1
    35    40    41    1
    36    41    42    1
    37    41    43    1
    38    41    44    1
    39    37    38   ar
    40    38    39   ar
    41    18    13   ar
    42    39    27    1
    43    23    19   ar
    44    32    29    1
    45    39    34   ar
    46     7     8    1
    47     2     3    1
    48    25    26    1
@<TRIPOS>MOLECULE
*****
 44 48 0 0 0
SMALL
GASTEIGER

@<TRIPOS>ATOM
      1 C          60.7669   89.7613    9.4061 C.3     1  UNL1        0.1443
      2 O          59.9643   90.2850   10.5600 O.3     1  UNL1       -0.3813
      3 H          60.5591   90.6908   11.2099 H       1  UNL1        0.2105
      4 C          60.0775   89.0833    8.2594 C.3     1  UNL1        0.1041
      5 C          59.3336   90.3574    6.1208 C.2     1  UNL1        0.2527
      6 O          60.7027   90.1745    5.5357 O.2     1  UNL1       -0.2724
      7 N          59.0211   89.8118    7.4827 N.am    1  UNL1       -0.3012
      8 H          58.1226   89.9319    7.8667 H       1  UNL1        0.1495
      9 C          58.2772   91.0859    5.3442 C.3     1  UNL1        0.2269
     10 C          59.4677   92.5276    3.5401 C.3     1  UNL1        0.1748
     11 O          58.5786   92.4273    4.7440 O.3     1  UNL1       -0.3418
     12 C          60.4445   87.6768    7.8893 C.3     1  UNL1        0.0484
     13 C          61.1372   86.7954    8.8860 C.ar    1  UNL1       -0.0204
     14 C          62.2478   85.8901    8.4423 C.ar    1  UNL1       -0.0041
     15 C          62.9405   85.0088    9.4390 C.ar    1  UNL1        0.0017
     16 C          62.5226   85.0328   10.8794 C.ar    1  UNL1        0.0238
     17 C          61.4120   85.9382   11.3232 C.ar    1  UNL1        0.0017
     18 C          60.7193   86.8195   10.3265 C.ar    1  UNL1       -0.0041
     19 C          63.2154   84.1515   11.8761 C.ar    1  UNL1        0.1108
     20 N          63.5102   84.4990   13.3053 N.ar    1  UNL1       -0.2368
     21 C          64.2119   83.3302   13.9310 C.ar    1  UNL1        0.1064
     22 C          64.3507   82.2605   12.8887 C.ar    1  UNL1        0.0575
     23 S          63.7348   82.7681   11.6187 S.2     1  UNL1       -0.0659
     24 C          62.2589   89.9155    9.3989 C.3     1  UNL1        0.1001
     25 N          62.8938   91.0986   10.0677 N.3     1  UNL1       -0.2928
     26 H          62.1475   91.7697   10.2494 H       1  UNL1        0.1236
     27 C          63.6395   90.9206   11.3570 C.3     1  UNL1        0.0849
     28 C          63.4173   89.6920   12.1884 C.3     1  UNL1        0.0604
     29 C          64.1630   89.5139   13.4777 C.3     1  UNL1        0.1363
     30 C          63.3063   88.2890   13.3523 C.3     1  UNL1        0.0402
     31 C          63.8488   87.7764   14.6535 C.3     1  UNL1        0.0072
     32 C          64.7055   89.0014   14.7789 C.3     1  UNL1        0.0402
     33 O          65.1308   90.5644   13.9355 O.3     1  UNL1       -0.4676
     34 C          65.3530   91.7930   13.1041 C.ar    1  UNL1        0.2216
     35 N          66.3210   92.8435   13.5620 N.ar    1  UNL1       -0.2107
     36 C          66.5431   94.0721   12.7306 C.ar    1  UNL1        0.0977
     37 C          65.7974   94.2501   11.4413 C.ar    1  UNL1       -0.0031
     38 C          64.8296   93.1996   10.9834 C.ar    1  UNL1       -0.0011
     39 C          64.6074   91.9711   11.8148 C.ar    1  UNL1        0.0449
     40 C          66.0196   95.4787   10.6098 C.3     1  UNL1        0.0279
     41 C          66.6001   95.3570    9.2320 C.3     1  UNL1        0.0041
     42 C          65.7081   96.4661    8.7584 C.3     1  UNL1        0.0003
     43 C          67.4920   94.2479    9.7058 C.3     1  UNL1        0.0003
     44 C          67.1805   95.2353    7.8543 C.3     1  UNL1        0.0003
@<TRIPOS>BOND
     1    10    11    1
     2    11     9    1
     3     9     5    1
     4     5     6    2
     5     5     7   am
     6     7     4    1
     7     4    12    1
     8    12    13    1
     9    13    14   ar
    10    14    15   ar
    11    15    16   ar
    12    16    19    1
    13    19    20   ar
    14    20    21   ar
    15    21    22   ar
    16    22    23   ar
    17    16    17   ar
    18    17    18   ar
    19     4     1    1
    20     1     2    1
    21     1    24    1
    22    24    25    1
    23    27    25    1
    24    27    28    1
    25    28    29    1
    26    29    30    1
    27    30    31    1
    28    31    32    1
    29    29    33    1
    30    33    34    1
    31    34    35   ar
    32    35    36   ar
    33    36    37   ar
    34    37    40    1
    35    40    41    1
    36    41    42    1
    37    41    43    1
    38    41    44    1
    39    37    38   ar
    40    38    39   ar
    41    18    13   ar
    42    39    27    1
    43    23    19   ar
    44    32    29    1
    45    39    34   ar
    46     7     8    1
    47     2     3    1
    48    25    26    1
@<TRIPOS>MOLECULE
*****
 44 48 0 0 0
SMALL
GASTEIGER

@<TRIPOS>ATOM
      1 C          61.1194   89.9755   11.0830 C.3     1  UNL1        0.1443
      2 O          59.9754   90.4522   11.9280 O.3     1  UNL1       -0.3813
      3 H          59.9913   91.4209   11.9771 H       1  UNL1        0.2105
      4 C          61.3185   88.5073   10.8495 C.3     1  UNL1        0.1041
      5 C          59.8602   87.9880    8.7630 C.2     1  UNL1        0.2527
      6 O          60.5539   89.0817    8.0060 O.2     1  UNL1       -0.2724
      7 N          60.2426   87.7009   10.1847 N.am    1  UNL1       -0.3012
      8 H          59.7873   86.9831   10.6815 H       1  UNL1        0.1495
      9 C          58.7843   87.1816    8.0982 C.3     1  UNL1        0.2269
     10 C          60.5690   85.5134    7.2140 C.3     1  UNL1        0.1748
     11 O          59.1482   85.9921    7.2598 O.3     1  UNL1       -0.3418
     12 C          62.5936   87.8455   11.2809 C.3     1  UNL1        0.0484
     13 C          62.6041   86.3830   11.6140 C.ar    1  UNL1       -0.0204
     14 C          62.8123   85.9380   13.0312 C.ar    1  UNL1       -0.0041
     15 C          62.8228   84.4755   13.3643 C.ar    1  UNL1        0.0017
     16 C          62.6252   83.4580   12.2802 C.ar    1  UNL1        0.0238
     17 C          62.4170   83.9029   10.8628 C.ar    1  UNL1        0.0017
     18 C          62.4065   85.3654   10.5297 C.ar    1  UNL1       -0.0041
     19 C          62.6357   81.9955   12.6133 C.ar    1  UNL1        0.1108
     20 N          62.8154   80.8703   11.6376 N.ar    1  UNL1       -0.2368
     21 C          62.7591   79.5808   12.4019 C.ar    1  UNL1        0.1064
     22 C          62.5447   79.9090   13.8498 C.ar    1  UNL1        0.0575
     23 S          62.4684   81.4014   13.9804 S.2     1  UNL1       -0.0659
     24 C          62.0643   90.9672   10.4716 C.3     1  UNL1        0.1001
     25 N          63.5203   90.9358   10.8308 N.3     1  UNL1       -0.2928
     26 H          63.9851   91.6220   10.2362 H       1  UNL1        0.1236
     27 C          63.9517   91.2201   12.2391 C.3     1  UNL1        0.0849
     28 C          63.4502   90.3644   13.3643 C.3     1  UNL1        0.0604
     29 C          63.8815   90.6487   14.7725 C.3     1  UNL1        0.1363
     30 C          62.9700   89.4620   14.8777 C.3     1  UNL1        0.0402
     31 C          63.1723   89.4384   16.3639 C.3     1  UNL1        0.0072
     32 C          64.0839   90.6250   16.2587 C.3     1  UNL1        0.0402
     33 O          64.8143   91.7887   15.0555 O.3     1  UNL1       -0.4676
     34 C          65.3158   92.6445   13.9302 C.ar    1  UNL1        0.2216
     35 N          66.2486   93.7846   14.2133 N.ar    1  UNL1       -0.2107
     36 C          66.7501   94.6404   13.0880 C.ar    1  UNL1        0.0977
     37 C          66.3187   94.3560   11.6797 C.ar    1  UNL1       -0.0031
     38 C          65.3859   93.2160   11.3968 C.ar    1  UNL1       -0.0011
     39 C          64.8845   92.3602   12.5220 C.ar    1  UNL1        0.0449
     40 C          66.8202   95.2118   10.5545 C.3     1  UNL1        0.0279
     41 C          67.3929   94.5729    9.3240 C.3     1  UNL1        0.0041
     42 C          67.9782   93.4777   10.1652 C.3     1  UNL1        0.0003
     43 C          66.8074   95.6683    8.4828 C.3     1  UNL1        0.0003
     44 C          67.9655   93.9340    8.0936 C.3     1  UNL1        0.0003
@<TRIPOS>BOND
     1    10    11    1
     2    11     9    1
     3     9     5    1
     4     5     6    2
     5     5     7   am
     6     7     4    1
     7     4    12    1
     8    12    13    1
     9    13    14   ar
    10    14    15   ar
    11    15    16   ar
    12    16    19    1
    13    19    20   ar
    14    20    21   ar
    15    21    22   ar
    16    22    23   ar
    17    16    17   ar
    18    17    18   ar
    19     4     1    1
    20     1     2    1
    21     1    24    1
    22    24    25    1
    23    27    25    1
    24    27    28    1
    25    28    29    1
    26    29    30    1
    27    30    31    1
    28    31    32    1
    29    29    33    1
    30    33    34    1
    31    34    35   ar
    32    35    36   ar
    33    36    37   ar
    34    37    40    1
    35    40    41    1
    36    41    42    1
    37    41    43    1
    38    41    44    1
    39    37    38   ar
    40    38    39   ar
    41    18    13   ar
    42    39    27    1
    43    23    19   ar
    44    32    29    1
    45    39    34   ar
    46     7     8    1
    47     2     3    1
    48    25    26    1
@<TRIPOS>MOLECULE
*****
 44 48 0 0 0
SMALL
GASTEIGER

@<TRIPOS>ATOM
      1 C          62.0732   90.4692   10.9151 C.3     1  UNL1        0.1443
      2 O          60.9873   90.9412   11.8361 O.3     1  UNL1       -0.3813
      3 H          60.9157   91.9071   11.7832 H       1  UNL1        0.2105
      4 C          62.3854   89.0057   10.8117 C.3     1  UNL1        0.1041
      5 C          60.4819   88.2260    9.2246 C.2     1  UNL1        0.2527
      6 O          59.4886   89.0088   10.0313 O.2     1  UNL1       -0.2724
      7 N          61.9302   88.2245    9.6148 N.am    1  UNL1       -0.3012
      8 H          62.5821   87.7107    9.0854 H       1  UNL1        0.1495
      9 C          60.0268   87.4448    8.0277 C.3     1  UNL1        0.2269
     10 C          61.4486   85.3633    7.3984 C.3     1  UNL1        0.1748
     11 O          60.2049   85.9558    7.9919 O.3     1  UNL1       -0.3418
     12 C          63.1527   88.3235   11.9052 C.3     1  UNL1        0.0484
     13 C          63.0210   86.8423   12.1023 C.ar    1  UNL1       -0.0204
     14 C          62.3636   86.0010   11.0487 C.ar    1  UNL1       -0.0041
     15 C          62.2320   84.5199   11.2458 C.ar    1  UNL1        0.0017
     16 C          62.7576   83.8800   12.4965 C.ar    1  UNL1        0.0238
     17 C          63.4150   84.7213   13.5502 C.ar    1  UNL1        0.0017
     18 C          63.5467   86.2025   13.3531 C.ar    1  UNL1       -0.0041
     19 C          62.6260   82.3989   12.6936 C.ar    1  UNL1        0.1108
     20 N          62.9112   81.3439   11.6661 N.ar    1  UNL1       -0.2368
     21 C          62.6475   80.0057   12.2903 C.ar    1  UNL1        0.1064
     22 C          62.1992   80.2336   13.7035 C.ar    1  UNL1        0.0575
     23 S          62.1859   81.7127   13.9528 S.2     1  UNL1       -0.0659
     24 C          62.8468   91.4607   10.0976 C.3     1  UNL1        0.1001
     25 N          64.3452   91.4799   10.1627 N.3     1  UNL1       -0.2928
     26 H          64.6824   91.4390    9.2009 H       1  UNL1        0.1236
     27 C          65.0527   92.6273   10.8210 C.3     1  UNL1        0.0849
     28 C          65.3597   93.8685   10.0368 C.3     1  UNL1        0.0604
     29 C          66.0671   95.0158   10.6950 C.3     1  UNL1        0.1363
     30 C          65.8319   95.4635    9.2828 C.3     1  UNL1        0.0402
     31 C          66.5013   96.7712    9.5859 C.3     1  UNL1        0.0072
     32 C          66.7365   96.3235   10.9981 C.3     1  UNL1        0.0402
     33 O          66.4675   94.9218   12.1375 O.3     1  UNL1       -0.4676
     34 C          66.1605   93.6805   12.9217 C.ar    1  UNL1        0.2216
     35 N          66.5610   93.5866   14.3643 N.ar    1  UNL1       -0.2107
     36 C          66.2540   92.3453   15.1485 C.ar    1  UNL1        0.0977
     37 C          65.5466   91.1980   14.4902 C.ar    1  UNL1       -0.0031
     38 C          65.1461   91.2920   13.0478 C.ar    1  UNL1       -0.0011
     39 C          65.4531   92.5333   12.2635 C.ar    1  UNL1        0.0449
     40 C          65.2396   89.9568   15.2745 C.3     1  UNL1        0.0279
     41 C          63.8568   89.7309   15.8102 C.3     1  UNL1        0.0041
     42 C          63.9442   88.2837   15.4258 C.3     1  UNL1        0.0003
     43 C          63.7693   91.1782   16.1947 C.3     1  UNL1        0.0003
     44 C          62.4741   89.5051   16.3459 C.3     1  UNL1        0.0003
@<TRIPOS>BOND
     1    10    11    1
     2    11     9    1
     3     9     5    1
     4     5     6    2
     5     5     7   am
     6     7     4    1
     7     4    12    1
     8    12    13    1
     9    13    14   ar
    10    14    15   ar
    11    15    16   ar
    12    16    19    1
    13    19    20   ar
    14    20    21   ar
    15    21    22   ar
    16    22    23   ar
    17    16    17   ar
    18    17    18   ar
    19     4     1    1
    20     1     2    1
    21     1    24    1
    22    24    25    1
    23    27    25    1
    24    27    28    1
    25    28    29    1
    26    29    30    1
    27    30    31    1
    28    31    32    1
    29    29    33    1
    30    33    34    1
    31    34    35   ar
    32    35    36   ar
    33    36    37   ar
    34    37    40    1
    35    40    41    1
    36    41    42    1
    37    41    43    1
    38    41    44    1
    39    37    38   ar
    40    38    39   ar
    41    18    13   ar
    42    39    27    1
    43    23    19   ar
    44    32    29    1
    45    39    34   ar
    46     7     8    1
    47     2     3    1
    48    25    26    1
@<TRIPOS>MOLECULE
*****
 44 48 0 0 0
SMALL
GASTEIGER

@<TRIPOS>ATOM
      1 C          61.6346   87.8484   11.4489 C.3     1  UNL1        0.1443
      2 O          60.5087   88.6311   12.0569 O.3     1  UNL1       -0.3813
      3 H          60.7952   89.5454   12.2080 H       1  UNL1        0.2105
      4 C          61.4458   86.3980   11.1163 C.3     1  UNL1        0.1041
      5 C          62.7891   84.2626   11.7374 C.2     1  UNL1        0.2527
      6 O          63.3815   84.2345   10.3596 O.2     1  UNL1       -0.2724
      7 N          61.8213   85.3443   12.1157 N.am    1  UNL1       -0.3012
      8 H          61.4325   85.3628   13.0200 H       1  UNL1        0.1495
      9 C          63.1646   83.2089   12.7368 C.3     1  UNL1        0.2269
     10 C          64.6215   84.7839   14.2020 C.3     1  UNL1        0.1748
     11 O          64.3407   83.4204   13.6435 O.3     1  UNL1       -0.3418
     12 C          60.8817   86.0012    9.7843 C.3     1  UNL1        0.0484
     13 C          60.3631   87.0509    8.8467 C.ar    1  UNL1       -0.0204
     14 C          59.4699   86.6625    7.7060 C.ar    1  UNL1       -0.0041
     15 C          58.9513   87.7122    6.7683 C.ar    1  UNL1        0.0017
     16 C          59.3259   89.1504    6.9714 C.ar    1  UNL1        0.0238
     17 C          60.2192   89.5389    8.1122 C.ar    1  UNL1        0.0017
     18 C          60.7378   88.4892    9.0498 C.ar    1  UNL1       -0.0041
     19 C          58.8074   90.2001    6.0338 C.ar    1  UNL1        0.1108
     20 N          57.3668   90.5632    5.8267 N.ar    1  UNL1       -0.2368
     21 C          57.3074   91.6586    4.8036 C.ar    1  UNL1        0.1064
     22 C          58.7113   91.9723    4.3783 C.ar    1  UNL1        0.0575
     23 S          59.6383   91.0708    5.1387 S.2     1  UNL1       -0.0659
     24 C          62.9493   88.5161   11.1734 C.3     1  UNL1        0.1001
     25 N          63.0932   89.9968   11.3655 N.3     1  UNL1       -0.2928
     26 H          62.1673   90.4026   11.2302 H       1  UNL1        0.1236
     27 C          63.6175   90.5373   12.6629 C.3     1  UNL1        0.0849
     28 C          63.1728   89.9327   13.9616 C.3     1  UNL1        0.0604
     29 C          63.6971   90.4732   15.2589 C.3     1  UNL1        0.1363
     30 C          62.7731   89.3575   15.6483 C.3     1  UNL1        0.0402
     31 C          63.0682   89.6182   17.0957 C.3     1  UNL1        0.0072
     32 C          63.9923   90.7338   16.7064 C.3     1  UNL1        0.0402
     33 O          64.6660   91.6182   15.2575 O.3     1  UNL1       -0.4676
     34 C          65.1106   92.2228   13.9587 C.ar    1  UNL1        0.2216
     35 N          66.0796   93.3679   13.9573 N.ar    1  UNL1       -0.2107
     36 C          66.5242   93.9725   12.6585 C.ar    1  UNL1        0.0977
     37 C          65.9999   93.4320   11.3612 C.ar    1  UNL1       -0.0031
     38 C          65.0310   92.2869   11.3627 C.ar    1  UNL1       -0.0011
     39 C          64.5864   91.6824   12.6614 C.ar    1  UNL1        0.0449
     40 C          66.4446   94.0366   10.0624 C.3     1  UNL1        0.0279
     41 C          67.6153   93.4553    9.3265 C.3     1  UNL1        0.0041
     42 C          67.6610   94.6664    8.4427 C.3     1  UNL1        0.0003
     43 C          67.5696   92.2442   10.2103 C.3     1  UNL1        0.0003
     44 C          68.7860   92.8742    8.5905 C.3     1  UNL1        0.0003
@<TRIPOS>BOND
     1    10    11    1
     2    11     9    1
     3     9     5    1
     4     5     6    2
     5     5     7   am
     6     7     4    1
     7     4    12    1
     8    12    13    1
     9    13    14   ar
    10    14    15   ar
    11    15    16   ar
    12    16    19    1
    13    19    20   ar
    14    20    21   ar
    15    21    22   ar
    16    22    23   ar
    17    16    17   ar
    18    17    18   ar
    19     4     1    1
    20     1     2    1
    21     1    24    1
    22    24    25    1
    23    27    25    1
    24    27    28    1
    25    28    29    1
    26    29    30    1
    27    30    31    1
    28    31    32    1
    29    29    33    1
    30    33    34    1
    31    34    35   ar
    32    35    36   ar
    33    36    37   ar
    34    37    40    1
    35    40    41    1
    36    41    42    1
    37    41    43    1
    38    41    44    1
    39    37    38   ar
    40    38    39   ar
    41    18    13   ar
    42    39    27    1
    43    23    19   ar
    44    32    29    1
    45    39    34   ar
    46     7     8    1
    47     2     3    1
    48    25    26    1
