@<TRIPOS>MOLECULE
*****
 35 37 0 0 0
SMALL
GASTEIGER

@<TRIPOS>ATOM
      1 C          64.2526   88.7551   15.1904 C.ar    1  UNL1        0.0505
      2 C          63.4624   88.9812   16.4452 C.ar    1  UNL1        0.0170
      3 C          62.7794   87.8284   17.1193 C.ar    1  UNL1        0.0307
      4 C          62.8867   86.4495   16.5388 C.ar    1  UNL1        0.1402
      5 F          62.2037   85.2966   17.2130 F       1  UNL1       -0.2044
      6 C          63.6769   86.2233   15.2840 C.ar    1  UNL1        0.0528
      7 C          64.3599   87.3762   14.6098 C.ar    1  UNL1        0.0167
      8 C          63.7842   84.8444   14.7034 C.3     1  UNL1        0.2223
      9 C          63.9705   84.5298   16.1581 C.3     1  UNL1        0.0607
     10 C          63.5605   85.6380   13.4503 C.3     1  UNL1        0.1959
     11 O          63.5089   84.9433   12.1219 O.3     1  UNL1       -0.3357
     12 C          63.6809   83.4551   12.0465 C.3     1  UNL1        0.2740
     13 C          63.7881   82.0762   11.4660 C.3     1  UNL1        0.0512
     14 C          63.9045   82.6615   13.2997 C.2     1  UNL1        0.3217
     15 N          64.0765   81.1733   13.2243 N.pl3   1  UNL1       -0.2480
     16 N          63.9561   83.3562   14.6281 N.2     1  UNL1       -0.0692
     17 H          64.0426   80.7174   12.3524 H       1  UNL1        0.2882
     18 H          64.2233   80.6525   14.0468 H       1  UNL1        0.2882
     19 C          63.4945   83.7698   10.5918 C.3     1  UNL1        0.4305
     20 F          63.3080   84.0845    9.1371 F       1  UNL1       -0.1670
     21 F          64.7930   83.0878   10.2778 F       1  UNL1       -0.1670
     22 F          62.1958   84.4517   10.9059 F       1  UNL1       -0.1670
     23 C          64.1905   90.7394   13.5145 C.2     1  UNL1        0.2669
     24 O          62.7625   90.4180   13.1869 O.2     1  UNL1       -0.2682
     25 N          64.9356   89.9080   14.5163 N.am    1  UNL1       -0.2792
     26 H          65.8729   90.1189   14.7313 H       1  UNL1        0.1552
     27 C          66.2395   94.1979   11.4920 C.ar    1  UNL1        0.1575
     28 C          66.4202   93.9760   12.9644 C.ar    1  UNL1        0.1357
     29 N          65.7373   92.8232   13.6386 N.ar    1  UNL1       -0.2364
     30 C          64.8735   91.8922   12.8403 C.ar    1  UNL1        0.1310
     31 C          64.6928   92.1141   11.3679 C.ar    1  UNL1        0.0033
     32 C          63.8290   91.1831   10.5696 C.3     1  UNL1        0.0329
     33 C          65.3757   93.2670   10.6937 C.ar    1  UNL1        0.0359
     34 C          67.3880   95.2204    9.3979 C.3     1  UNL1        0.2525
     35 O          66.9225   95.3507   10.8178 O.3     1  UNL1       -0.4699
@<TRIPOS>BOND
     1    34    35    1
     2    35    27    1
     3    27    28   ar
     4    28    29   ar
     5    29    30   ar
     6    30    23    1
     7    23    24    2
     8    23    25   am
     9    25     1    1
    10     1     2   ar
    11     2     3   ar
    12     3     4   ar
    13     4     5    1
    14     4     6   ar
    15     6     8    1
    16     8     9    1
    17     8    10    1
    18    10    11    1
    19    11    12    1
    20    12    13    1
    21    12    19    1
    22    19    20    1
    23    19    21    1
    24    19    22    1
    25    12    14    1
    26    14    15    1
    27    14    16    2
    28     6     7   ar
    29    30    31   ar
    30    31    32    1
    31    31    33   ar
    32    33    27   ar
    33     7     1   ar
    34    16     8    1
    35    25    26    1
    36    15    17    1
    37    15    18    1
@<TRIPOS>MOLECULE
*****
 35 37 0 0 0
SMALL
GASTEIGER

@<TRIPOS>ATOM
      1 C          63.5905   86.5168   15.0622 C.ar    1  UNL1        0.0505
      2 C          63.2135   86.7952   16.4871 C.ar    1  UNL1        0.0170
      3 C          63.1924   88.2063   16.9954 C.ar    1  UNL1        0.0307
      4 C          63.5484   89.3390   16.0788 C.ar    1  UNL1        0.1402
      5 F          63.5273   90.7501   16.5871 F       1  UNL1       -0.2044
      6 C          63.9254   89.0607   14.6538 C.ar    1  UNL1        0.0528
      7 C          63.9464   87.6496   14.1455 C.ar    1  UNL1        0.0167
      8 C          64.2813   90.1934   13.7372 C.3     1  UNL1        0.2223
      9 C          63.1044   89.6236   13.0023 C.3     1  UNL1        0.0607
     10 C          65.3347   90.3698   14.7905 C.3     1  UNL1        0.1959
     11 O          66.3352   91.4811   14.6718 O.3     1  UNL1       -0.3357
     12 C          66.2823   92.4160   13.5000 C.3     1  UNL1        0.2740
     13 C          66.6383   93.5487   12.5834 C.3     1  UNL1        0.0512
     14 C          65.2289   92.2396   12.4467 C.2     1  UNL1        0.3217
     15 N          65.1761   93.1744   11.2749 N.pl3   1  UNL1       -0.2480
     16 N          64.2285   91.1283   12.5654 N.2     1  UNL1       -0.0692
     17 H          65.8328   93.9038   11.1970 H       1  UNL1        0.2882
     18 H          64.4848   93.0587   10.5836 H       1  UNL1        0.2882
     19 C          67.4593   92.9857   14.2349 C.3     1  UNL1        0.4305
     20 F          68.6363   93.5554   14.9699 F       1  UNL1       -0.1670
     21 F          66.6533   94.2019   14.5829 F       1  UNL1       -0.1670
     22 F          68.2653   91.7694   13.8868 F       1  UNL1       -0.1670
     23 C          62.8126   84.7338   13.3401 C.2     1  UNL1        0.2669
     24 O          61.9927   85.7729   12.6346 O.2     1  UNL1       -0.2682
     25 N          63.6115   85.1057   14.5539 N.am    1  UNL1       -0.2792
     26 H          64.1497   84.4237   15.0170 H       1  UNL1        0.1552
     27 C          62.8758   80.5005   11.8152 C.ar    1  UNL1        0.1575
     28 C          62.5721   80.7733   13.2586 C.ar    1  UNL1        0.1357
     29 N          62.5511   82.1844   13.7669 N.ar    1  UNL1       -0.2364
     30 C          62.8337   83.3227   12.8318 C.ar    1  UNL1        0.1310
     31 C          63.1373   83.0499   11.3884 C.ar    1  UNL1        0.0033
     32 C          63.4200   84.1882   10.4533 C.3     1  UNL1        0.0329
     33 C          63.1584   81.6388   10.8801 C.ar    1  UNL1        0.0359
     34 C          62.8165   78.8218    9.8332 C.3     1  UNL1        0.2525
     35 O          62.8968   79.0894   11.3069 O.3     1  UNL1       -0.4699
@<TRIPOS>BOND
     1    34    35    1
     2    35    27    1
     3    27    28   ar
     4    28    29   ar
     5    29    30   ar
     6    30    23    1
     7    23    24    2
     8    23    25   am
     9    25     1    1
    10     1     2   ar
    11     2     3   ar
    12     3     4   ar
    13     4     5    1
    14     4     6   ar
    15     6     8    1
    16     8     9    1
    17     8    10    1
    18    10    11    1
    19    11    12    1
    20    12    13    1
    21    12    19    1
    22    19    20    1
    23    19    21    1
    24    19    22    1
    25    12    14    1
    26    14    15    1
    27    14    16    2
    28     6     7   ar
    29    30    31   ar
    30    31    32    1
    31    31    33   ar
    32    33    27   ar
    33     7     1   ar
    34    16     8    1
    35    25    26    1
    36    15    17    1
    37    15    18    1
@<TRIPOS>MOLECULE
*****
 35 37 0 0 0
SMALL
GASTEIGER

@<TRIPOS>ATOM
      1 C          62.4700   89.3811   11.2872 C.ar    1  UNL1        0.0505
      2 C          61.1541   89.7971   10.6997 C.ar    1  UNL1        0.0170
      3 C          60.2727   88.7794   10.0382 C.ar    1  UNL1        0.0307
      4 C          60.7073   87.3456    9.9643 C.ar    1  UNL1        0.1402
      5 F          59.8259   86.3279    9.3029 F       1  UNL1       -0.2044
      6 C          62.0232   86.9295   10.5519 C.ar    1  UNL1        0.0528
      7 C          62.9046   87.9472   11.2133 C.ar    1  UNL1        0.0167
      8 C          62.4578   85.4958   10.4780 C.3     1  UNL1        0.2223
      9 C          62.6647   85.9046    9.0497 C.3     1  UNL1        0.0607
     10 C          62.1000   85.5849   11.9320 C.3     1  UNL1        0.1959
     11 O          62.2486   84.3822   12.8159 O.3     1  UNL1       -0.3357
     12 C          62.7550   83.0904   12.2460 C.3     1  UNL1        0.2740
     13 C          63.1896   81.6567   12.1721 C.3     1  UNL1        0.0512
     14 C          63.1128   83.0013   10.7920 C.2     1  UNL1        0.3217
     15 N          63.6193   81.7095   10.2221 N.pl3   1  UNL1       -0.2480
     16 N          62.9642   84.2040    9.9081 N.2     1  UNL1       -0.0692
     17 H          63.7168   80.9202   10.8023 H       1  UNL1        0.2882
     18 H          63.8541   81.6510    9.2678 H       1  UNL1        0.2882
     19 C          62.5481   82.6816   13.6743 C.3     1  UNL1        0.4305
     20 F          62.3411   82.2728   15.1026 F       1  UNL1       -0.1670
     21 F          63.5420   83.7154   14.1142 F       1  UNL1       -0.1670
     22 F          61.5542   81.6478   13.2343 F       1  UNL1       -0.1670
     23 C          64.1065   90.0407   13.1942 C.2     1  UNL1        0.2669
     24 O          63.9803   88.6649   13.7783 O.2     1  UNL1       -0.2682
     25 N          63.3513   90.3988   11.9486 N.am    1  UNL1       -0.2792
     26 H          63.4342   91.3017   11.5652 H       1  UNL1        0.1552
     27 C          66.7506   93.0938   15.1785 C.ar    1  UNL1        0.1575
     28 C          66.9379   92.7702   13.7258 C.ar    1  UNL1        0.1357
     29 N          66.0566   91.7525   13.0644 N.ar    1  UNL1       -0.2364
     30 C          64.9879   91.0584   13.8556 C.ar    1  UNL1        0.1310
     31 C          64.8005   91.3820   15.3082 C.ar    1  UNL1        0.0033
     32 C          63.7318   90.6878   16.0995 C.3     1  UNL1        0.0329
     33 C          65.6819   92.3997   15.9696 C.ar    1  UNL1        0.0359
     34 C          69.0912   93.8254   16.0364 C.3     1  UNL1        0.2525
     35 O          67.6319   94.1115   15.8399 O.3     1  UNL1       -0.4699
@<TRIPOS>BOND
     1    34    35    1
     2    35    27    1
     3    27    28   ar
     4    28    29   ar
     5    29    30   ar
     6    30    23    1
     7    23    24    2
     8    23    25   am
     9    25     1    1
    10     1     2   ar
    11     2     3   ar
    12     3     4   ar
    13     4     5    1
    14     4     6   ar
    15     6     8    1
    16     8     9    1
    17     8    10    1
    18    10    11    1
    19    11    12    1
    20    12    13    1
    21    12    19    1
    22    19    20    1
    23    19    21    1
    24    19    22    1
    25    12    14    1
    26    14    15    1
    27    14    16    2
    28     6     7   ar
    29    30    31   ar
    30    31    32    1
    31    31    33   ar
    32    33    27   ar
    33     7     1   ar
    34    16     8    1
    35    25    26    1
    36    15    17    1
    37    15    18    1
@<TRIPOS>MOLECULE
*****
 35 37 0 0 0
SMALL
GASTEIGER

@<TRIPOS>ATOM
      1 C          61.2172   87.5218   11.1924 C.ar    1  UNL1        0.0505
      2 C          59.8328   88.0745   11.3597 C.ar    1  UNL1        0.0170
      3 C          59.6266   89.5546   11.4887 C.ar    1  UNL1        0.0307
      4 C          60.8048   90.4821   11.4504 C.ar    1  UNL1        0.1402
      5 F          60.5986   91.9623   11.5793 F       1  UNL1       -0.2044
      6 C          62.1893   89.9295   11.2831 C.ar    1  UNL1        0.0528
      7 C          62.3954   88.4494   11.1541 C.ar    1  UNL1        0.0167
      8 C          63.3675   90.8570   11.2448 C.3     1  UNL1        0.2223
      9 C          62.9476   90.9098    9.8058 C.3     1  UNL1        0.0607
     10 C          63.3782   90.4822   12.6972 C.3     1  UNL1        0.1959
     11 O          64.4213   91.0532   13.6114 O.3     1  UNL1       -0.3357
     12 C          65.4537   91.9991   13.0734 C.3     1  UNL1        0.2740
     13 C          66.6319   92.9266   13.0351 C.3     1  UNL1        0.0512
     14 C          65.4430   92.3739   11.6210 C.2     1  UNL1        0.3217
     15 N          66.4754   93.3198   11.0829 N.pl3   1  UNL1       -0.2480
     16 N          64.3998   91.8029   10.7068 N.2     1  UNL1       -0.0692
     17 H          67.1600   93.6945   11.6830 H       1  UNL1        0.2882
     18 H          66.4684   93.5658   10.1297 H       1  UNL1        0.2882
     19 C          65.8735   91.9463   14.5125 C.3     1  UNL1        0.4305
     20 F          66.2934   91.8936   15.9516 F       1  UNL1       -0.1670
     21 F          65.7094   90.4553   14.5058 F       1  UNL1       -0.1670
     22 F          66.0377   93.4373   14.5191 F       1  UNL1       -0.1670
     23 C          62.3687   85.3328   11.9875 C.2     1  UNL1        0.2669
     24 O          63.1078   86.1041   13.0404 O.2     1  UNL1       -0.2682
     25 N          61.4233   86.0417   11.0635 N.am    1  UNL1       -0.2792
     26 H          60.9382   85.5355   10.3724 H       1  UNL1        0.1552
     27 C          62.9872   80.8923   11.6005 C.ar    1  UNL1        0.1575
     28 C          62.3708   81.4581   12.8455 C.ar    1  UNL1        0.1357
     29 N          62.1647   82.9382   12.9745 N.ar    1  UNL1       -0.2364
     30 C          62.5749   83.8527   11.8585 C.ar    1  UNL1        0.1310
     31 C          63.1912   83.2869   10.6135 C.ar    1  UNL1        0.0033
     32 C          63.6015   84.2014    9.4974 C.3     1  UNL1        0.0329
     33 C          63.3974   81.8068   10.4846 C.ar    1  UNL1        0.0359
     34 C          62.8510   78.7163   10.1877 C.3     1  UNL1        0.2525
     35 O          63.1934   79.4122   11.4716 O.3     1  UNL1       -0.4699
@<TRIPOS>BOND
     1    34    35    1
     2    35    27    1
     3    27    28   ar
     4    28    29   ar
     5    29    30   ar
     6    30    23    1
     7    23    24    2
     8    23    25   am
     9    25     1    1
    10     1     2   ar
    11     2     3   ar
    12     3     4   ar
    13     4     5    1
    14     4     6   ar
    15     6     8    1
    16     8     9    1
    17     8    10    1
    18    10    11    1
    19    11    12    1
    20    12    13    1
    21    12    19    1
    22    19    20    1
    23    19    21    1
    24    19    22    1
    25    12    14    1
    26    14    15    1
    27    14    16    2
    28     6     7   ar
    29    30    31   ar
    30    31    32    1
    31    31    33   ar
    32    33    27   ar
    33     7     1   ar
    34    16     8    1
    35    25    26    1
    36    15    17    1
    37    15    18    1
@<TRIPOS>MOLECULE
*****
 35 37 0 0 0
SMALL
GASTEIGER

@<TRIPOS>ATOM
      1 C          61.4616   87.2954   10.9486 C.ar    1  UNL1        0.0505
      2 C          60.2515   87.9482   10.3491 C.ar    1  UNL1        0.0170
      3 C          60.0982   89.4393   10.4058 C.ar    1  UNL1        0.0307
      4 C          61.1549   90.2775   11.0620 C.ar    1  UNL1        0.1402
      5 F          61.0016   91.7685   11.1188 F       1  UNL1       -0.2044
      6 C          62.3651   89.6246   11.6616 C.ar    1  UNL1        0.0528
      7 C          62.5184   88.1336   11.6049 C.ar    1  UNL1        0.0167
      8 C          63.4218   90.4628   12.3179 C.3     1  UNL1        0.2223
      9 C          62.8763   89.7456   13.5170 C.3     1  UNL1        0.0607
     10 C          63.6004   90.8890   10.8907 C.3     1  UNL1        0.1959
     11 O          64.6462   91.9042   10.5365 O.3     1  UNL1       -0.3357
     12 C          65.5135   92.4933   11.6092 C.3     1  UNL1        0.2740
     13 C          66.5702   93.3315   12.2655 C.3     1  UNL1        0.0512
     14 C          65.3349   92.0672   13.0363 C.2     1  UNL1        0.3217
     15 N          66.2022   92.6563   14.1090 N.pl3   1  UNL1       -0.2480
     16 N          64.2891   91.0520   13.3906 N.2     1  UNL1       -0.0692
     17 H          66.8886   93.3227   13.8765 H       1  UNL1        0.2882
     18 H          66.0850   92.3767   15.0457 H       1  UNL1        0.2882
     19 C          66.0590   93.2105   10.4100 C.3     1  UNL1        0.4305
     20 F          66.6044   93.9278    9.2108 F       1  UNL1       -0.1670
     21 F          66.9191   92.0237   10.0914 F       1  UNL1       -0.1670
     22 F          65.1988   94.3974   10.7287 F       1  UNL1       -0.1670
     23 C          62.4352   85.0947   11.9280 C.2     1  UNL1        0.2669
     24 O          63.1022   85.8762   13.0208 O.2     1  UNL1       -0.2682
     25 N          61.6149   85.8043   10.8919 N.am    1  UNL1       -0.2792
     26 H          61.1772   85.2914   10.1746 H       1  UNL1        0.1552
     27 C          62.8952   80.6215   11.7578 C.ar    1  UNL1        0.1575
     28 C          62.2436   81.2638   12.9464 C.ar    1  UNL1        0.1357
     29 N          62.0902   82.7549   13.0031 N.ar    1  UNL1       -0.2364
     30 C          62.5886   83.6037   11.8713 C.ar    1  UNL1        0.1310
     31 C          63.2402   82.9614   10.6827 C.ar    1  UNL1        0.0033
     32 C          63.7386   83.8102    9.5507 C.3     1  UNL1        0.0329
     33 C          63.3935   81.4703   10.6260 C.ar    1  UNL1        0.0359
     34 C          62.7349   78.3919   10.4338 C.3     1  UNL1        0.2525
     35 O          63.0486   79.1305   11.7011 O.3     1  UNL1       -0.4699
@<TRIPOS>BOND
     1    34    35    1
     2    35    27    1
     3    27    28   ar
     4    28    29   ar
     5    29    30   ar
     6    30    23    1
     7    23    24    2
     8    23    25   am
     9    25     1    1
    10     1     2   ar
    11     2     3   ar
    12     3     4   ar
    13     4     5    1
    14     4     6   ar
    15     6     8    1
    16     8     9    1
    17     8    10    1
    18    10    11    1
    19    11    12    1
    20    12    13    1
    21    12    19    1
    22    19    20    1
    23    19    21    1
    24    19    22    1
    25    12    14    1
    26    14    15    1
    27    14    16    2
    28     6     7   ar
    29    30    31   ar
    30    31    32    1
    31    31    33   ar
    32    33    27   ar
    33     7     1   ar
    34    16     8    1
    35    25    26    1
    36    15    17    1
    37    15    18    1
@<TRIPOS>MOLECULE
*****
 35 37 0 0 0
SMALL
GASTEIGER

@<TRIPOS>ATOM
      1 C          63.5433   86.2505   15.3091 C.ar    1  UNL1        0.0505
      2 C          63.0894   86.5131   16.7144 C.ar    1  UNL1        0.0170
      3 C          63.0775   87.9145   17.2492 C.ar    1  UNL1        0.0307
      4 C          63.5195   89.0533   16.3787 C.ar    1  UNL1        0.1402
      5 F          63.5075   90.4546   16.9135 F       1  UNL1       -0.2044
      6 C          63.9734   88.7907   14.9733 C.ar    1  UNL1        0.0528
      7 C          63.9853   87.3893   14.4385 C.ar    1  UNL1        0.0167
      8 C          64.4153   89.9295   14.1028 C.3     1  UNL1        0.2223
      9 C          65.2785   90.1707   15.3055 C.3     1  UNL1        0.0607
     10 C          63.3985   89.2927   13.2024 C.3     1  UNL1        0.1959
     11 O          63.1236   89.8785   11.8492 O.3     1  UNL1       -0.3357
     12 C          63.8653   91.1011   11.3963 C.3     1  UNL1        0.2740
     13 C          64.3073   92.2399   10.5258 C.3     1  UNL1        0.0512
     14 C          64.8821   91.7379   12.2968 C.2     1  UNL1        0.3217
     15 N          65.6238   92.9605   11.8439 N.pl3   1  UNL1       -0.2480
     16 N          65.1570   91.1521   13.6500 N.2     1  UNL1       -0.0692
     17 H          65.4434   93.3450   10.9557 H       1  UNL1        0.2882
     18 H          66.2912   93.3785   12.4349 H       1  UNL1        0.2882
     19 C          63.0021   90.8598   10.1936 C.3     1  UNL1        0.4305
     20 F          62.1387   90.6183    8.9909 F       1  UNL1       -0.1670
     21 F          63.2369   92.2706    9.7418 F       1  UNL1       -0.1670
     22 F          62.7672   89.4488   10.6455 F       1  UNL1       -0.1670
     23 C          62.7765   84.5117   13.5375 C.2     1  UNL1        0.2669
     24 O          61.9858   85.5757   12.8356 O.2     1  UNL1       -0.2682
     25 N          63.5552   84.8492   14.7743 N.am    1  UNL1       -0.2792
     26 H          64.0742   84.1509   15.2350 H       1  UNL1        0.1552
     27 C          62.8122   80.3076   11.9331 C.ar    1  UNL1        0.1575
     28 C          62.4535   80.5599   13.3675 C.ar    1  UNL1        0.1357
     29 N          62.4415   81.9613   13.9023 N.ar    1  UNL1       -0.2364
     30 C          62.7884   83.1104   13.0027 C.ar    1  UNL1        0.1310
     31 C          63.1471   82.8581   11.5683 C.ar    1  UNL1        0.0033
     32 C          63.4940   84.0072   10.6686 C.3     1  UNL1        0.0329
     33 C          63.1591   81.4567   11.0335 C.ar    1  UNL1        0.0359
     34 C          62.7911   78.6682    9.9177 C.3     1  UNL1        0.2525
     35 O          62.8241   78.9063   11.3983 O.3     1  UNL1       -0.4699
@<TRIPOS>BOND
     1    34    35    1
     2    35    27    1
     3    27    28   ar
     4    28    29   ar
     5    29    30   ar
     6    30    23    1
     7    23    24    2
     8    23    25   am
     9    25     1    1
    10     1     2   ar
    11     2     3   ar
    12     3     4   ar
    13     4     5    1
    14     4     6   ar
    15     6     8    1
    16     8     9    1
    17     8    10    1
    18    10    11    1
    19    11    12    1
    20    12    13    1
    21    12    19    1
    22    19    20    1
    23    19    21    1
    24    19    22    1
    25    12    14    1
    26    14    15    1
    27    14    16    2
    28     6     7   ar
    29    30    31   ar
    30    31    32    1
    31    31    33   ar
    32    33    27   ar
    33     7     1   ar
    34    16     8    1
    35    25    26    1
    36    15    17    1
    37    15    18    1
@<TRIPOS>MOLECULE
*****
 35 37 0 0 0
SMALL
GASTEIGER

@<TRIPOS>ATOM
      1 C          62.7474   87.7872   11.5846 C.ar    1  UNL1        0.0505
      2 C          62.4993   88.5398   10.3111 C.ar    1  UNL1        0.0170
      3 C          62.7261   90.0217   10.2593 C.ar    1  UNL1        0.0307
      4 C          63.2010   90.7509   11.4810 C.ar    1  UNL1        0.1402
      5 F          63.4279   92.2328   11.4291 F       1  UNL1       -0.2044
      6 C          63.4492   89.9983   12.7546 C.ar    1  UNL1        0.0528
      7 C          63.2224   88.5165   12.8064 C.ar    1  UNL1        0.0167
      8 C          63.9241   90.7275   13.9763 C.3     1  UNL1        0.2223
      9 C          62.5148   90.4203   14.3877 C.3     1  UNL1        0.0607
     10 C          65.1686   90.7815   13.1406 C.3     1  UNL1        0.1959
     11 O          66.3984   91.4581   13.6695 O.3     1  UNL1       -0.3357
     12 C          66.3839   92.0806   15.0341 C.3     1  UNL1        0.2740
     13 C          66.8588   92.8098   16.2559 C.3     1  UNL1        0.0512
     14 C          65.1394   92.0266   15.8699 C.2     1  UNL1        0.3217
     15 N          65.1249   92.6491   17.2345 N.pl3   1  UNL1       -0.2480
     16 N          63.9096   91.3501   15.3410 N.2     1  UNL1       -0.0692
     17 H          65.9321   93.0932   17.5816 H       1  UNL1        0.2882
     18 H          64.3081   92.6137   17.7831 H       1  UNL1        0.2882
     19 C          67.7932   92.3878   14.6226 C.3     1  UNL1        0.4305
     20 F          69.2026   92.6950   14.2112 F       1  UNL1       -0.1670
     21 F          67.2801   93.1875   13.4620 F       1  UNL1       -0.1670
     22 F          68.3063   91.5881   15.7833 F       1  UNL1       -0.1670
     23 C          63.1387   85.4900   12.7333 C.2     1  UNL1        0.2669
     24 O          63.9835   86.1564   13.7783 O.2     1  UNL1       -0.2682
     25 N          62.5206   86.3054   11.6365 N.am    1  UNL1       -0.2792
     26 H          61.9661   85.8680   10.9506 H       1  UNL1        0.1552
     27 C          62.4583   81.0444   12.8888 C.ar    1  UNL1        0.1575
     28 C          62.1268   81.8959   14.0783 C.ar    1  UNL1        0.1357
     29 N          62.3536   83.3778   14.0265 N.ar    1  UNL1       -0.2364
     30 C          62.9119   84.0081   12.7851 C.ar    1  UNL1        0.1310
     31 C          63.2433   83.1566   11.5956 C.ar    1  UNL1        0.0033
     32 C          63.8016   83.7869   10.3541 C.3     1  UNL1        0.0329
     33 C          63.0165   81.6747   11.6474 C.ar    1  UNL1        0.0359
     34 C          62.5391   78.7144   11.7424 C.3     1  UNL1        0.2525
     35 O          62.2314   79.5626   12.9406 O.3     1  UNL1       -0.4699
@<TRIPOS>BOND
     1    34    35    1
     2    35    27    1
     3    27    28   ar
     4    28    29   ar
     5    29    30   ar
     6    30    23    1
     7    23    24    2
     8    23    25   am
     9    25     1    1
    10     1     2   ar
    11     2     3   ar
    12     3     4   ar
    13     4     5    1
    14     4     6   ar
    15     6     8    1
    16     8     9    1
    17     8    10    1
    18    10    11    1
    19    11    12    1
    20    12    13    1
    21    12    19    1
    22    19    20    1
    23    19    21    1
    24    19    22    1
    25    12    14    1
    26    14    15    1
    27    14    16    2
    28     6     7   ar
    29    30    31   ar
    30    31    32    1
    31    31    33   ar
    32    33    27   ar
    33     7     1   ar
    34    16     8    1
    35    25    26    1
    36    15    17    1
    37    15    18    1
