@<TRIPOS>MOLECULE
*****
 21 23 0 0 0
SMALL
GASTEIGER

@<TRIPOS>ATOM
      1 C          65.0043   91.8793   12.0860 C.ar    1  UNL1        0.0538
      2 C          63.7941   91.2612   11.4510 C.ar    1  UNL1        0.1019
      3 N          62.9647   90.2757   12.2195 N.ar    1  UNL1       -0.2422
      4 C          63.3455   89.9082   13.6231 C.ar    1  UNL1        0.0989
      5 C          64.5557   90.5262   14.2581 C.ar    1  UNL1        0.0209
      6 C          65.3851   91.5118   13.4895 C.ar    1  UNL1        0.0090
      7 C          66.5955   92.1299   14.1245 C.ar    1  UNL1        0.0386
      8 C          67.9670   91.7562   13.6458 C.ar    1  UNL1        0.1022
      9 N          69.1773   92.3742   14.2807 N.ar    1  UNL1       -0.2224
     10 C          69.0161   93.3661   15.3944 C.ar    1  UNL1        0.1989
     11 N          67.6445   93.7399   15.8731 N.ar    1  UNL1       -0.2224
     12 C          66.4342   93.1217   15.2382 C.ar    1  UNL1        0.1022
     13 C          66.7339   94.9467   10.4534 C.ar    1  UNL1        0.1385
     14 C          67.4865   93.8164    9.8162 C.ar    1  UNL1        0.0375
     15 C          66.9302   92.5298   10.3502 C.ar    1  UNL1        0.0404
     16 C          65.8338   92.8649   11.3175 C.ar    1  UNL1        0.1464
     17 O          65.7125   94.3586   11.3813 O.2     1  UNL1       -0.4563
     18 N          67.6861   96.8560    8.9709 N.3     1  UNL1       -0.3148
     19 C          66.9626   96.4084   10.2063 C.3     1  UNL1        0.1307
     20 H          67.7516   97.8739    8.9651 H       1  UNL1        0.1192
     21 H          67.1749   96.5435    8.1454 H       1  UNL1        0.1192
@<TRIPOS>BOND
     1    18    19    1
     2    19    13    1
     3    13    14   ar
     4    14    15   ar
     5    15    16   ar
     6    16     1    1
     7     1     2   ar
     8     2     3   ar
     9     3     4   ar
    10     4     5   ar
    11     5     6   ar
    12     6     7    1
    13     7     8   ar
    14     8     9   ar
    15     9    10   ar
    16    10    11   ar
    17    11    12   ar
    18    16    17   ar
    19    17    13   ar
    20     6     1   ar
    21    12     7   ar
    22    18    20    1
    23    18    21    1
@<TRIPOS>MOLECULE
*****
 21 23 0 0 0
SMALL
GASTEIGER

@<TRIPOS>ATOM
      1 C          64.8613   91.7164   12.4345 C.ar    1  UNL1        0.0538
      2 C          63.6191   91.0903   11.8735 C.ar    1  UNL1        0.1019
      3 N          62.7948   90.1684   12.7224 N.ar    1  UNL1       -0.2422
      4 C          63.2127   89.8726   14.1323 C.ar    1  UNL1        0.0989
      5 C          64.4549   90.4987   14.6933 C.ar    1  UNL1        0.0209
      6 C          65.2792   91.4206   13.8444 C.ar    1  UNL1        0.0090
      7 C          66.5216   92.0467   14.4054 C.ar    1  UNL1        0.0386
      8 C          66.4411   92.9002   15.6363 C.ar    1  UNL1        0.1022
      9 N          67.6833   93.5264   16.1973 N.ar    1  UNL1       -0.2224
     10 C          69.0061   93.2990   15.5275 C.ar    1  UNL1        0.1989
     11 N          69.0866   92.4455   14.2966 N.ar    1  UNL1       -0.2224
     12 C          67.8442   91.8194   13.7356 C.ar    1  UNL1        0.1022
     13 C          67.2145   93.4689    9.8934 C.ar    1  UNL1        0.1385
     14 C          66.6939   94.6451   10.6653 C.ar    1  UNL1        0.0375
     15 C          65.7491   94.1317   11.7111 C.ar    1  UNL1        0.0404
     16 C          65.6857   92.6383   11.5856 C.ar    1  UNL1        0.1464
     17 O          66.5913   92.2287   10.4622 O.2     1  UNL1       -0.4563
     18 N          68.7991   92.2585    8.2279 N.3     1  UNL1       -0.3148
     19 C          68.1874   93.5234    8.7530 C.3     1  UNL1        0.1307
     20 H          69.4316   92.4804    7.4590 H       1  UNL1        0.1192
     21 H          68.0621   91.6376    7.8936 H       1  UNL1        0.1192
@<TRIPOS>BOND
     1    18    19    1
     2    19    13    1
     3    13    14   ar
     4    14    15   ar
     5    15    16   ar
     6    16     1    1
     7     1     2   ar
     8     2     3   ar
     9     3     4   ar
    10     4     5   ar
    11     5     6   ar
    12     6     7    1
    13     7     8   ar
    14     8     9   ar
    15     9    10   ar
    16    10    11   ar
    17    11    12   ar
    18    16    17   ar
    19    17    13   ar
    20     6     1   ar
    21    12     7   ar
    22    18    20    1
    23    18    21    1
@<TRIPOS>MOLECULE
*****
 21 23 0 0 0
SMALL
GASTEIGER

@<TRIPOS>ATOM
      1 C          64.4611   90.3872   14.0103 C.ar    1  UNL1        0.0538
      2 C          65.5623   91.3220   14.4144 C.ar    1  UNL1        0.1019
      3 N          66.0225   92.3918   13.4691 N.ar    1  UNL1       -0.2422
      4 C          65.3815   92.5268   12.1197 C.ar    1  UNL1        0.0989
      5 C          64.2803   91.5919   11.7156 C.ar    1  UNL1        0.0209
      6 C          63.8201   90.5221   12.6609 C.ar    1  UNL1        0.0090
      7 C          62.7188   89.5872   12.2569 C.ar    1  UNL1        0.0386
      8 C          63.0453   88.1951   11.8038 C.ar    1  UNL1        0.1022
      9 N          61.9442   87.2601   11.3998 N.ar    1  UNL1       -0.2224
     10 C          60.5163   87.7174   11.4488 C.ar    1  UNL1        0.1989
     11 N          60.1898   89.1095   11.9020 N.ar    1  UNL1       -0.2224
     12 C          61.2910   90.0444   12.3060 C.ar    1  UNL1        0.1022
     13 C          63.6079   87.1494   15.9736 C.ar    1  UNL1        0.1385
     14 C          62.9771   88.1928   16.8473 C.ar    1  UNL1        0.0375
     15 C          63.2200   89.5327   16.2182 C.ar    1  UNL1        0.0404
     16 C          64.0008   89.3173   14.9557 C.ar    1  UNL1        0.1464
     17 O          64.2406   87.8444   14.8045 O.2     1  UNL1       -0.4563
     18 N          64.5823   84.7866   15.5063 N.3     1  UNL1       -0.3148
     19 C          63.6063   85.6705   16.2248 C.3     1  UNL1        0.1307
     20 H          64.4411   83.8187   15.7954 H       1  UNL1        0.1192
     21 H          65.5338   85.0744   15.7350 H       1  UNL1        0.1192
@<TRIPOS>BOND
     1    18    19    1
     2    19    13    1
     3    13    14   ar
     4    14    15   ar
     5    15    16   ar
     6    16     1    1
     7     1     2   ar
     8     2     3   ar
     9     3     4   ar
    10     4     5   ar
    11     5     6   ar
    12     6     7    1
    13     7     8   ar
    14     8     9   ar
    15     9    10   ar
    16    10    11   ar
    17    11    12   ar
    18    16    17   ar
    19    17    13   ar
    20     6     1   ar
    21    12     7   ar
    22    18    20    1
    23    18    21    1
@<TRIPOS>MOLECULE
*****
 21 23 0 0 0
SMALL
GASTEIGER

@<TRIPOS>ATOM
      1 C          64.0813   91.2071   11.8969 C.ar    1  UNL1        0.0538
      2 C          64.6115   92.0651   10.7866 C.ar    1  UNL1        0.1019
      3 N          65.8434   92.8933   11.0017 N.ar    1  UNL1       -0.2422
      4 C          66.5451   92.8637   12.3272 C.ar    1  UNL1        0.0989
      5 C          66.0149   92.0058   13.4374 C.ar    1  UNL1        0.0209
      6 C          64.7830   91.1775   13.2223 C.ar    1  UNL1        0.0090
      7 C          64.2527   90.3195   14.3326 C.ar    1  UNL1        0.0386
      8 C          64.3012   88.8250   14.2142 C.ar    1  UNL1        0.1022
      9 N          63.7710   87.9670   15.3244 N.ar    1  UNL1       -0.2224
     10 C          63.1922   88.6035   16.5532 C.ar    1  UNL1        0.1989
     11 N          63.1437   90.0981   16.6717 N.ar    1  UNL1       -0.2224
     12 C          63.6739   90.9561   15.5613 C.ar    1  UNL1        0.1022
     13 C          60.5574   89.5849   11.7683 C.ar    1  UNL1        0.1385
     14 C          61.3499   88.6232   10.9332 C.ar    1  UNL1        0.0375
     15 C          62.7663   89.1139   10.8798 C.ar    1  UNL1        0.0404
     16 C          62.8493   90.3788   11.6818 C.ar    1  UNL1        0.1464
     17 O          61.4842   90.6699   12.2309 O.2     1  UNL1       -0.4563
     18 N          58.6317   88.5963   13.2051 N.3     1  UNL1       -0.3148
     19 C          59.0950   89.4800   12.0851 C.3     1  UNL1        0.1307
     20 H          57.6156   88.6455   13.2789 H       1  UNL1        0.1192
     21 H          59.0517   88.9086   14.0806 H       1  UNL1        0.1192
@<TRIPOS>BOND
     1    18    19    1
     2    19    13    1
     3    13    14   ar
     4    14    15   ar
     5    15    16   ar
     6    16     1    1
     7     1     2   ar
     8     2     3   ar
     9     3     4   ar
    10     4     5   ar
    11     5     6   ar
    12     6     7    1
    13     7     8   ar
    14     8     9   ar
    15     9    10   ar
    16    10    11   ar
    17    11    12   ar
    18    16    17   ar
    19    17    13   ar
    20     6     1   ar
    21    12     7   ar
    22    18    20    1
    23    18    21    1
@<TRIPOS>MOLECULE
*****
 21 23 0 0 0
SMALL
GASTEIGER

@<TRIPOS>ATOM
      1 C          63.9104   90.5072   12.6983 C.ar    1  UNL1        0.0538
      2 C          64.3812   91.6543   11.8543 C.ar    1  UNL1        0.1019
      3 N          65.4811   92.5467   12.3479 N.ar    1  UNL1       -0.2422
      4 C          66.1102   92.2921   13.6855 C.ar    1  UNL1        0.0989
      5 C          65.6394   91.1450   14.5296 C.ar    1  UNL1        0.0209
      6 C          64.5395   90.2525   14.0360 C.ar    1  UNL1        0.0090
      7 C          64.0687   89.1053   14.8800 C.ar    1  UNL1        0.0386
      8 C          63.2055   89.3616   16.0797 C.ar    1  UNL1        0.1022
      9 N          62.7347   88.2146   16.9238 N.ar    1  UNL1       -0.2224
     10 C          63.1270   86.8111   16.5681 C.ar    1  UNL1        0.1989
     11 N          63.9902   86.5548   15.3685 N.ar    1  UNL1       -0.2224
     12 C          64.4610   87.7020   14.5244 C.ar    1  UNL1        0.1022
     13 C          61.6007   87.6691   11.4036 C.ar    1  UNL1        0.1385
     14 C          60.6347   88.8137   11.4868 C.ar    1  UNL1        0.0375
     15 C          61.3823   90.0161   11.9820 C.ar    1  UNL1        0.0404
     16 C          62.8104   89.6147   12.2047 C.ar    1  UNL1        0.1464
     17 O          62.9453   88.1642   11.8473 O.2     1  UNL1       -0.4563
     18 N          62.3101   85.1917   11.0732 N.3     1  UNL1       -0.3148
     19 C          61.2786   86.2743   10.9554 C.3     1  UNL1        0.1307
     20 H          61.9236   84.3145   10.7245 H       1  UNL1        0.1192
     21 H          62.5763   85.0807   12.0516 H       1  UNL1        0.1192
@<TRIPOS>BOND
     1    18    19    1
     2    19    13    1
     3    13    14   ar
     4    14    15   ar
     5    15    16   ar
     6    16     1    1
     7     1     2   ar
     8     2     3   ar
     9     3     4   ar
    10     4     5   ar
    11     5     6   ar
    12     6     7    1
    13     7     8   ar
    14     8     9   ar
    15     9    10   ar
    16    10    11   ar
    17    11    12   ar
    18    16    17   ar
    19    17    13   ar
    20     6     1   ar
    21    12     7   ar
    22    18    20    1
    23    18    21    1
@<TRIPOS>MOLECULE
*****
 21 23 0 0 0
SMALL
GASTEIGER

@<TRIPOS>ATOM
      1 C          64.5870   91.4116   12.6732 C.ar    1  UNL1        0.0538
      2 C          63.5216   90.4602   13.1310 C.ar    1  UNL1        0.1019
      3 N          62.4582   90.0083   12.1745 N.ar    1  UNL1       -0.2422
      4 C          62.4602   90.5078   10.7601 C.ar    1  UNL1        0.0989
      5 C          63.5256   91.4592   10.3023 C.ar    1  UNL1        0.0209
      6 C          64.5890   91.9112   11.2588 C.ar    1  UNL1        0.0090
      7 C          65.6545   92.8626   10.8009 C.ar    1  UNL1        0.0386
      8 C          65.4573   94.3413   10.9579 C.ar    1  UNL1        0.1022
      9 N          66.5227   95.2928   10.5000 N.ar    1  UNL1       -0.2224
     10 C          67.7853   94.7656    9.8853 C.ar    1  UNL1        0.1989
     11 N          67.9825   93.2869    9.7284 N.ar    1  UNL1       -0.2224
     12 C          66.9170   92.3354   10.1862 C.ar    1  UNL1        0.1022
     13 C          67.8084   92.4482   14.5742 C.ar    1  UNL1        0.1385
     14 C          66.7653   92.6699   15.6292 C.ar    1  UNL1        0.0375
     15 C          65.4316   92.3085   15.0454 C.ar    1  UNL1        0.0404
     16 C          65.6504   91.8636   13.6297 C.ar    1  UNL1        0.1464
     17 O          67.1193   91.9499   13.3385 O.2     1  UNL1       -0.4563
     18 N          70.2402   92.1227   13.7196 N.3     1  UNL1       -0.3148
     19 C          69.2818   92.6836   14.7279 C.3     1  UNL1        0.1307
     20 H          71.1934   92.3774   13.9781 H       1  UNL1        0.1192
     21 H          70.0249   92.5026   12.7978 H       1  UNL1        0.1192
@<TRIPOS>BOND
     1    18    19    1
     2    19    13    1
     3    13    14   ar
     4    14    15   ar
     5    15    16   ar
     6    16     1    1
     7     1     2   ar
     8     2     3   ar
     9     3     4   ar
    10     4     5   ar
    11     5     6   ar
    12     6     7    1
    13     7     8   ar
    14     8     9   ar
    15     9    10   ar
    16    10    11   ar
    17    11    12   ar
    18    16    17   ar
    19    17    13   ar
    20     6     1   ar
    21    12     7   ar
    22    18    20    1
    23    18    21    1
@<TRIPOS>MOLECULE
*****
 21 23 0 0 0
SMALL
GASTEIGER

@<TRIPOS>ATOM
      1 C          63.2317   84.5543   11.6639 C.ar    1  UNL1        0.0538
      2 C          63.5216   83.7784   10.4134 C.ar    1  UNL1        0.1019
      3 N          64.1976   82.4422   10.4996 N.ar    1  UNL1       -0.2422
      4 C          64.5837   81.8819   11.8364 C.ar    1  UNL1        0.0989
      5 C          64.2938   82.6578   13.0870 C.ar    1  UNL1        0.0209
      6 C          63.6178   83.9940   13.0007 C.ar    1  UNL1        0.0090
      7 C          63.3278   84.7699   14.2513 C.ar    1  UNL1        0.0386
      8 C          62.1566   84.3967   15.1109 C.ar    1  UNL1        0.1022
      9 N          61.8666   85.1726   16.3614 N.ar    1  UNL1       -0.2224
     10 C          62.7479   86.3218   16.7524 C.ar    1  UNL1        0.1989
     11 N          63.9191   86.6951   15.8928 N.ar    1  UNL1       -0.2224
     12 C          64.2090   85.9191   14.6422 C.ar    1  UNL1        0.1022
     13 C          62.0919   88.2619   11.8065 C.ar    1  UNL1        0.1385
     14 C          60.9385   87.6317   11.0836 C.ar    1  UNL1        0.0375
     15 C          61.2251   86.1661   10.9422 C.ar    1  UNL1        0.0404
     16 C          62.5556   85.8906   11.5777 C.ar    1  UNL1        0.1464
     17 O          63.0913   87.1858   12.1119 O.2     1  UNL1       -0.4563
     18 N          62.3649   90.1243   13.5973 N.3     1  UNL1       -0.3148
     19 C          62.2229   89.7133   12.1617 C.3     1  UNL1        0.1307
     20 H          62.4414   91.1399   13.6542 H       1  UNL1        0.1192
     21 H          63.2030   89.6975   13.9919 H       1  UNL1        0.1192
@<TRIPOS>BOND
     1    18    19    1
     2    19    13    1
     3    13    14   ar
     4    14    15   ar
     5    15    16   ar
     6    16     1    1
     7     1     2   ar
     8     2     3   ar
     9     3     4   ar
    10     4     5   ar
    11     5     6   ar
    12     6     7    1
    13     7     8   ar
    14     8     9   ar
    15     9    10   ar
    16    10    11   ar
    17    11    12   ar
    18    16    17   ar
    19    17    13   ar
    20     6     1   ar
    21    12     7   ar
    22    18    20    1
    23    18    21    1
@<TRIPOS>MOLECULE
*****
 21 23 0 0 0
SMALL
GASTEIGER

@<TRIPOS>ATOM
      1 C          63.4742   84.4360   13.5260 C.ar    1  UNL1        0.0538
      2 C          63.8436   83.5109   14.6474 C.ar    1  UNL1        0.1019
      3 N          63.6142   82.0351   14.5087 N.ar    1  UNL1       -0.2422
      4 C          63.0154   81.4844   13.2485 C.ar    1  UNL1        0.0989
      5 C          62.6459   82.4095   12.1270 C.ar    1  UNL1        0.0209
      6 C          62.8753   83.8853   12.2658 C.ar    1  UNL1        0.0090
      7 C          62.5059   84.8105   11.1444 C.ar    1  UNL1        0.0386
      8 C          63.2615   84.7589    9.8497 C.ar    1  UNL1        0.1022
      9 N          62.8921   85.6840    8.7282 N.ar    1  UNL1       -0.2224
     10 C          61.7670   86.6608    8.9015 C.ar    1  UNL1        0.1989
     11 N          61.0113   86.7125   10.1962 N.ar    1  UNL1       -0.2224
     12 C          61.3808   85.7873   11.3177 C.ar    1  UNL1        0.1022
     13 C          63.6850   88.3010   13.2376 C.ar    1  UNL1        0.1385
     14 C          64.4282   88.0650   14.5191 C.ar    1  UNL1        0.0375
     15 C          64.4397   86.5884   14.7830 C.ar    1  UNL1        0.0404
     16 C          63.7036   85.9119   13.6648 C.ar    1  UNL1        0.1464
     17 O          63.2372   86.9703   12.7097 O.2     1  UNL1       -0.4563
     18 N          62.0320   90.1522   12.4691 N.3     1  UNL1       -0.3148
     19 C          63.4337   89.6337   12.5967 C.3     1  UNL1        0.1307
     20 H          62.0471   91.0644   12.0129 H       1  UNL1        0.1192
     21 H          61.6172   90.2427   13.3965 H       1  UNL1        0.1192
@<TRIPOS>BOND
     1    18    19    1
     2    19    13    1
     3    13    14   ar
     4    14    15   ar
     5    15    16   ar
     6    16     1    1
     7     1     2   ar
     8     2     3   ar
     9     3     4   ar
    10     4     5   ar
    11     5     6   ar
    12     6     7    1
    13     7     8   ar
    14     8     9   ar
    15     9    10   ar
    16    10    11   ar
    17    11    12   ar
    18    16    17   ar
    19    17    13   ar
    20     6     1   ar
    21    12     7   ar
    22    18    20    1
    23    18    21    1
@<TRIPOS>MOLECULE
*****
 21 23 0 0 0
SMALL
GASTEIGER

@<TRIPOS>ATOM
      1 C          65.0681   92.1613   12.9018 C.ar    1  UNL1        0.0538
      2 C          65.8400   93.2956   12.2957 C.ar    1  UNL1        0.1019
      3 N          66.9155   93.9785   13.0875 N.ar    1  UNL1       -0.2422
      4 C          67.2189   93.5272   14.4855 C.ar    1  UNL1        0.0989
      5 C          66.4470   92.3929   15.0916 C.ar    1  UNL1        0.0209
      6 C          65.3716   91.7099   14.2998 C.ar    1  UNL1        0.0090
      7 C          64.5996   90.5755   14.9059 C.ar    1  UNL1        0.0386
      8 C          63.6924   90.8254   16.0740 C.ar    1  UNL1        0.1022
      9 N          62.9204   89.6911   16.6801 N.ar    1  UNL1       -0.2224
     10 C          63.0556   88.3069   16.1181 C.ar    1  UNL1        0.1989
     11 N          63.9628   88.0571   14.9499 N.ar    1  UNL1       -0.2224
     12 C          64.7348   89.1914   14.3438 C.ar    1  UNL1        0.1022
     13 C          61.9362   90.3332   11.5180 C.ar    1  UNL1        0.1385
     14 C          62.7392   90.5213   10.2651 C.ar    1  UNL1        0.0375
     15 C          64.0101   91.2290   10.6310 C.ar    1  UNL1        0.0404
     16 C          63.9926   91.4783   12.1100 C.ar    1  UNL1        0.1464
     17 O          62.7109   90.9246   12.6582 O.2     1  UNL1       -0.4563
     18 N          59.8916   89.5865   12.9365 N.3     1  UNL1       -0.3148
     19 C          60.5941   89.6700   11.6139 C.3     1  UNL1        0.1307
     20 H          58.9989   89.1076   12.8177 H       1  UNL1        0.1192
     21 H          59.7276   90.5275   13.2944 H       1  UNL1        0.1192
@<TRIPOS>BOND
     1    18    19    1
     2    19    13    1
     3    13    14   ar
     4    14    15   ar
     5    15    16   ar
     6    16     1    1
     7     1     2   ar
     8     2     3   ar
     9     3     4   ar
    10     4     5   ar
    11     5     6   ar
    12     6     7    1
    13     7     8   ar
    14     8     9   ar
    15     9    10   ar
    16    10    11   ar
    17    11    12   ar
    18    16    17   ar
    19    17    13   ar
    20     6     1   ar
    21    12     7   ar
    22    18    20    1
    23    18    21    1
