@<TRIPOS>MOLECULE
*****
 28 31 0 0 0
SMALL
GASTEIGER

@<TRIPOS>ATOM
      1 C          63.2218   87.6108   12.6996 C.ar    1  UNL1        0.1320
      2 C          62.3931   88.0483   11.5284 C.ar    1  UNL1        0.0532
      3 C          61.6534   87.0309   10.7112 C.ar    1  UNL1        0.0858
      4 N          61.7426   85.5759   11.0653 N.ar    1  UNL1       -0.2252
      5 C          62.5713   85.1385   12.2365 C.ar    1  UNL1        0.1813
      6 N          63.3109   86.1559   13.0537 N.ar    1  UNL1       -0.2105
      7 C          60.8247   87.4683    9.5400 C.ar    1  UNL1        0.0178
      8 C          60.7085   88.9261    9.2061 C.ar    1  UNL1        0.0015
      9 C          59.8798   89.3635    8.0348 C.ar    1  UNL1        0.0000
     10 C          59.1672   88.3432    7.1975 C.ar    1  UNL1        0.0000
     11 C          59.2833   86.8855    7.5313 C.ar    1  UNL1        0.0000
     12 C          60.1121   86.4480    8.7026 C.ar    1  UNL1        0.0015
     13 C          62.6604   83.6837   12.5905 C.ar    1  UNL1        0.1170
     14 C          62.9819   82.6721   11.5306 C.ar    1  UNL1        0.0223
     15 C          63.0710   81.2172   11.8847 C.ar    1  UNL1        0.0032
     16 C          62.8386   80.7739   13.2987 C.ar    1  UNL1        0.0207
     17 C          62.5171   81.7854   14.3586 C.ar    1  UNL1        0.0989
     18 N          62.4280   83.2402   14.0046 N.ar    1  UNL1       -0.2407
     19 N          63.9615   88.6282   13.5168 N.pl3   1  UNL1       -0.3118
     20 H          64.7707   88.3672   14.0129 H       1  UNL1        0.1486
     21 C          63.4681   90.0434   13.5781 C.3     1  UNL1        0.1550
     22 C          66.5201   94.4070   10.8132 C.3     1  UNL1        0.0343
     23 C          65.7571   93.3161   11.5044 C.ar    1  UNL1        0.0165
     24 C          65.9375   93.0913   12.9764 C.ar    1  UNL1        0.0975
     25 N          65.1745   92.0005   13.6676 N.ar    1  UNL1       -0.2277
     26 C          64.2311   91.1343   12.8868 C.ar    1  UNL1        0.1589
     27 N          64.0507   91.3590   11.4148 N.ar    1  UNL1       -0.2277
     28 C          64.8137   92.4499   10.7236 C.ar    1  UNL1        0.0975
@<TRIPOS>BOND
     1    22    23    1
     2    23    24   ar
     3    24    25   ar
     4    25    26   ar
     5    26    21    1
     6    21    19    1
     7    19     1    1
     8     1     2   ar
     9     2     3   ar
    10     3     7    1
    11     7     8   ar
    12     8     9   ar
    13     9    10   ar
    14    10    11   ar
    15    11    12   ar
    16     3     4   ar
    17     4     5   ar
    18     5    13    1
    19    13    14   ar
    20    14    15   ar
    21    15    16   ar
    22    16    17   ar
    23    17    18   ar
    24     5     6   ar
    25    26    27   ar
    26    27    28   ar
    27    28    23   ar
    28     6     1   ar
    29    12     7   ar
    30    18    13   ar
    31    19    20    1
@<TRIPOS>MOLECULE
*****
 28 31 0 0 0
SMALL
GASTEIGER

@<TRIPOS>ATOM
      1 C          63.2454   87.5076   12.7478 C.ar    1  UNL1        0.1320
      2 C          63.3331   86.0454   13.0709 C.ar    1  UNL1        0.0532
      3 C          62.5904   85.0465   12.2338 C.ar    1  UNL1        0.0858
      4 N          61.7599   85.5098   11.0737 N.ar    1  UNL1       -0.2252
      5 C          61.6722   86.9720   10.7507 C.ar    1  UNL1        0.1813
      6 N          62.4149   87.9709   11.5878 N.ar    1  UNL1       -0.2105
      7 C          62.6781   83.5844   12.5569 C.ar    1  UNL1        0.0178
      8 C          62.9899   82.5944   11.4739 C.ar    1  UNL1        0.0015
      9 C          63.0777   81.1322   11.7969 C.ar    1  UNL1        0.0000
     10 C          62.8536   80.6600   13.2029 C.ar    1  UNL1        0.0000
     11 C          62.5418   81.6499   14.2858 C.ar    1  UNL1        0.0000
     12 C          62.4540   83.1121   13.9628 C.ar    1  UNL1        0.0015
     13 C          60.8418   87.4352    9.5907 C.ar    1  UNL1        0.1170
     14 C          60.1237   86.4340    8.7351 C.ar    1  UNL1        0.0223
     15 C          59.2932   86.8974    7.5751 C.ar    1  UNL1        0.0032
     16 C          59.1809   88.3618    7.2705 C.ar    1  UNL1        0.0207
     17 C          59.8990   89.3630    8.1261 C.ar    1  UNL1        0.0989
     18 N          60.7295   88.8997    9.2861 N.ar    1  UNL1       -0.2407
     19 N          63.9881   88.5065   13.5848 N.pl3   1  UNL1       -0.3118
     20 H          64.7998   88.2347   14.0711 H       1  UNL1        0.1486
     21 C          63.4940   89.9195   13.6809 C.3     1  UNL1        0.1550
     22 C          66.4373   94.3248   10.8648 C.3     1  UNL1        0.0343
     23 C          65.7015   93.2235   11.5688 C.ar    1  UNL1        0.0165
     24 C          64.7370   92.3612   10.8098 C.ar    1  UNL1        0.0975
     25 N          64.0012   91.2598   11.5139 N.ar    1  UNL1       -0.2277
     26 C          64.2298   91.0208   12.9769 C.ar    1  UNL1        0.1589
     27 N          65.1943   91.8831   13.7359 N.ar    1  UNL1       -0.2277
     28 C          65.9302   92.9845   13.0318 C.ar    1  UNL1        0.0975
@<TRIPOS>BOND
     1    22    23    1
     2    23    24   ar
     3    24    25   ar
     4    25    26   ar
     5    26    21    1
     6    21    19    1
     7    19     1    1
     8     1     2   ar
     9     2     3   ar
    10     3     7    1
    11     7     8   ar
    12     8     9   ar
    13     9    10   ar
    14    10    11   ar
    15    11    12   ar
    16     3     4   ar
    17     4     5   ar
    18     5    13    1
    19    13    14   ar
    20    14    15   ar
    21    15    16   ar
    22    16    17   ar
    23    17    18   ar
    24     5     6   ar
    25    26    27   ar
    26    27    28   ar
    27    28    23   ar
    28     6     1   ar
    29    12     7   ar
    30    18    13   ar
    31    19    20    1
@<TRIPOS>MOLECULE
*****
 28 31 0 0 0
SMALL
GASTEIGER

@<TRIPOS>ATOM
      1 C          63.4155   86.9999   13.1036 C.ar    1  UNL1        0.1320
      2 C          63.4106   85.5165   13.3270 C.ar    1  UNL1        0.0532
      3 C          62.6261   84.6230   12.4126 C.ar    1  UNL1        0.0858
      4 N          61.8464   85.2128   11.2749 N.ar    1  UNL1       -0.2252
      5 C          61.8513   86.6960   11.0515 C.ar    1  UNL1        0.1813
      6 N          62.6359   87.5896   11.9659 N.ar    1  UNL1       -0.2105
      7 C          62.6211   83.1398   12.6359 C.ar    1  UNL1        0.0178
      8 C          62.2262   82.5837   13.9720 C.ar    1  UNL1        0.0015
      9 C          62.2213   81.1005   14.1953 C.ar    1  UNL1        0.0000
     10 C          62.6113   80.1732   13.0826 C.ar    1  UNL1        0.0000
     11 C          63.0062   80.7291   11.7467 C.ar    1  UNL1        0.0000
     12 C          63.0112   82.2125   11.5233 C.ar    1  UNL1        0.0015
     13 C          61.0717   87.2857    9.9138 C.ar    1  UNL1        0.1170
     14 C          60.4008   86.3862    8.9185 C.ar    1  UNL1        0.0223
     15 C          59.6211   86.9759    7.7808 C.ar    1  UNL1        0.0032
     16 C          59.5124   88.4652    7.6384 C.ar    1  UNL1        0.0207
     17 C          60.1834   89.3647    8.6337 C.ar    1  UNL1        0.0989
     18 N          60.9630   88.7750    9.7714 N.ar    1  UNL1       -0.2407
     19 N          64.2000   87.8934   14.0180 N.pl3   1  UNL1       -0.3118
     20 H          65.0240   87.5617   14.4426 H       1  UNL1        0.1486
     21 C          63.7292   89.2923   14.2853 C.3     1  UNL1        0.1550
     22 C          66.2948   93.9148   11.4481 C.3     1  UNL1        0.0343
     23 C          65.6534   92.7592   12.1574 C.ar    1  UNL1        0.0165
     24 C          66.1310   92.3579   13.5215 C.ar    1  UNL1        0.0975
     25 N          65.4896   91.2023   14.2308 N.ar    1  UNL1       -0.2277
     26 C          64.3706   90.4479   13.5760 C.ar    1  UNL1        0.1589
     27 N          63.8931   90.8492   12.2119 N.ar    1  UNL1       -0.2277
     28 C          64.5345   92.0048   11.5026 C.ar    1  UNL1        0.0975
@<TRIPOS>BOND
     1    22    23    1
     2    23    24   ar
     3    24    25   ar
     4    25    26   ar
     5    26    21    1
     6    21    19    1
     7    19     1    1
     8     1     2   ar
     9     2     3   ar
    10     3     7    1
    11     7     8   ar
    12     8     9   ar
    13     9    10   ar
    14    10    11   ar
    15    11    12   ar
    16     3     4   ar
    17     4     5   ar
    18     5    13    1
    19    13    14   ar
    20    14    15   ar
    21    15    16   ar
    22    16    17   ar
    23    17    18   ar
    24     5     6   ar
    25    26    27   ar
    26    27    28   ar
    27    28    23   ar
    28     6     1   ar
    29    12     7   ar
    30    18    13   ar
    31    19    20    1
@<TRIPOS>MOLECULE
*****
 28 31 0 0 0
SMALL
GASTEIGER

@<TRIPOS>ATOM
      1 C          63.8299   88.6553   13.7088 C.ar    1  UNL1        0.1320
      2 C          64.5162   89.9772   13.5307 C.ar    1  UNL1        0.0532
      3 C          64.2834   90.7814   12.2860 C.ar    1  UNL1        0.0858
      4 N          63.3643   90.2637   11.2195 N.ar    1  UNL1       -0.2252
      5 C          62.6781   88.9418   11.3976 C.ar    1  UNL1        0.1813
      6 N          62.9109   88.1376   12.6423 N.ar    1  UNL1       -0.2105
      7 C          64.9696   92.1032   12.1079 C.ar    1  UNL1        0.0178
      8 C          65.7054   92.7272   13.2566 C.ar    1  UNL1        0.0015
      9 C          66.3916   94.0490   13.0785 C.ar    1  UNL1        0.0000
     10 C          66.3421   94.7470   11.7517 C.ar    1  UNL1        0.0000
     11 C          65.6064   94.1231   10.6031 C.ar    1  UNL1        0.0000
     12 C          64.9201   92.8012   10.7811 C.ar    1  UNL1        0.0015
     13 C          61.7591   88.4242   10.3312 C.ar    1  UNL1        0.1170
     14 C          61.6629   86.9494   10.0751 C.ar    1  UNL1        0.0223
     15 C          60.7438   86.4317    9.0085 C.ar    1  UNL1        0.0032
     16 C          59.9211   87.3889    8.1981 C.ar    1  UNL1        0.0207
     17 C          60.0173   88.8638    8.4542 C.ar    1  UNL1        0.0989
     18 N          60.9363   89.3814    9.5207 N.ar    1  UNL1       -0.2407
     19 N          64.0627   87.8511   14.9534 N.pl3   1  UNL1       -0.3118
     20 H          63.7234   88.1746   15.8191 H       1  UNL1        0.1486
     21 C          64.8123   86.5540   14.8789 C.3     1  UNL1        0.1550
     22 C          61.8253   81.3993   14.1665 C.3     1  UNL1        0.0343
     23 C          62.5720   82.6880   14.3446 C.ar    1  UNL1        0.0165
     24 C          63.8757   82.9037   13.6347 C.ar    1  UNL1        0.0975
     25 N          64.6224   84.1923   13.8129 N.ar    1  UNL1       -0.2277
     26 C          64.0655   85.2653   14.7008 C.ar    1  UNL1        0.1589
     27 N          62.7619   85.0496   15.4107 N.ar    1  UNL1       -0.2277
     28 C          62.0151   83.7610   15.2326 C.ar    1  UNL1        0.0975
@<TRIPOS>BOND
     1    22    23    1
     2    23    24   ar
     3    24    25   ar
     4    25    26   ar
     5    26    21    1
     6    21    19    1
     7    19     1    1
     8     1     2   ar
     9     2     3   ar
    10     3     7    1
    11     7     8   ar
    12     8     9   ar
    13     9    10   ar
    14    10    11   ar
    15    11    12   ar
    16     3     4   ar
    17     4     5   ar
    18     5    13    1
    19    13    14   ar
    20    14    15   ar
    21    15    16   ar
    22    16    17   ar
    23    17    18   ar
    24     5     6   ar
    25    26    27   ar
    26    27    28   ar
    27    28    23   ar
    28     6     1   ar
    29    12     7   ar
    30    18    13   ar
    31    19    20    1
@<TRIPOS>MOLECULE
*****
 28 31 0 0 0
SMALL
GASTEIGER

@<TRIPOS>ATOM
      1 C          64.2772   91.0822   13.7185 C.ar    1  UNL1        0.1320
      2 C          63.2984   90.2387   12.9564 C.ar    1  UNL1        0.0532
      3 C          63.1811   90.3857   11.4682 C.ar    1  UNL1        0.0858
      4 N          64.0425   91.3760   10.7421 N.ar    1  UNL1       -0.2252
      5 C          65.0212   92.2194   11.5042 C.ar    1  UNL1        0.1813
      6 N          65.1386   92.0725   12.9923 N.ar    1  UNL1       -0.2105
      7 C          62.2024   89.5423   10.7062 C.ar    1  UNL1        0.0178
      8 C          61.0836   90.1923    9.9474 C.ar    1  UNL1        0.0015
      9 C          60.1049   89.3489    9.1853 C.ar    1  UNL1        0.0000
     10 C          60.2449   87.8555    9.1820 C.ar    1  UNL1        0.0000
     11 C          61.3637   87.2054    9.9408 C.ar    1  UNL1        0.0000
     12 C          62.3424   88.0488   10.7029 C.ar    1  UNL1        0.0015
     13 C          65.8826   93.2098   10.7781 C.ar    1  UNL1        0.1170
     14 C          67.1246   92.7494   10.0742 C.ar    1  UNL1        0.0223
     15 C          67.9859   93.7398    9.3480 C.ar    1  UNL1        0.0032
     16 C          67.6053   95.1905    9.3258 C.ar    1  UNL1        0.0207
     17 C          66.3633   95.6509   10.0297 C.ar    1  UNL1        0.0989
     18 N          65.5019   94.6606   10.7558 N.ar    1  UNL1       -0.2407
     19 N          64.3946   90.9353   15.2066 N.pl3   1  UNL1       -0.3118
     20 H          65.1137   91.4005   15.6920 H       1  UNL1        0.1486
     21 C          63.4163   90.0795   15.9552 C.3     1  UNL1        0.1550
     22 C          63.8930   84.1018   15.7557 C.3     1  UNL1        0.0343
     23 C          63.7738   85.5962   15.8056 C.ar    1  UNL1        0.0165
     24 C          64.4013   86.4349   14.7319 C.ar    1  UNL1        0.0975
     25 N          64.2822   87.9293   14.7818 N.ar    1  UNL1       -0.2277
     26 C          63.5355   88.5850   15.9053 C.ar    1  UNL1        0.1589
     27 N          62.9079   87.7463   16.9790 N.ar    1  UNL1       -0.2277
     28 C          63.0271   86.2519   16.9291 C.ar    1  UNL1        0.0975
@<TRIPOS>BOND
     1    22    23    1
     2    23    24   ar
     3    24    25   ar
     4    25    26   ar
     5    26    21    1
     6    21    19    1
     7    19     1    1
     8     1     2   ar
     9     2     3   ar
    10     3     7    1
    11     7     8   ar
    12     8     9   ar
    13     9    10   ar
    14    10    11   ar
    15    11    12   ar
    16     3     4   ar
    17     4     5   ar
    18     5    13    1
    19    13    14   ar
    20    14    15   ar
    21    15    16   ar
    22    16    17   ar
    23    17    18   ar
    24     5     6   ar
    25    26    27   ar
    26    27    28   ar
    27    28    23   ar
    28     6     1   ar
    29    12     7   ar
    30    18    13   ar
    31    19    20    1
@<TRIPOS>MOLECULE
*****
 28 31 0 0 0
SMALL
GASTEIGER

@<TRIPOS>ATOM
      1 C          63.4395   87.8754   13.0871 C.ar    1  UNL1        0.1320
      2 C          62.6101   88.2825   11.9053 C.ar    1  UNL1        0.0532
      3 C          61.9386   87.2374   11.0646 C.ar    1  UNL1        0.0858
      4 N          62.0965   85.7852   11.4056 N.ar    1  UNL1       -0.2252
      5 C          62.9258   85.3781   12.5873 C.ar    1  UNL1        0.1813
      6 N          63.5973   86.4232   13.4280 N.ar    1  UNL1       -0.2105
      7 C          61.1092   87.6445    9.8829 C.ar    1  UNL1        0.0178
      8 C          60.4507   86.5986    9.0328 C.ar    1  UNL1        0.0015
      9 C          59.6214   87.0057    7.8511 C.ar    1  UNL1        0.0000
     10 C          59.4505   88.4586    7.5194 C.ar    1  UNL1        0.0000
     11 C          60.1090   89.5044    8.3695 C.ar    1  UNL1        0.0000
     12 C          60.9384   89.0973    9.5512 C.ar    1  UNL1        0.0015
     13 C          63.0836   83.9260   12.9282 C.ar    1  UNL1        0.1170
     14 C          62.2242   83.3073   13.9906 C.ar    1  UNL1        0.0223
     15 C          62.3820   81.8551   14.3315 C.ar    1  UNL1        0.0032
     16 C          63.3993   81.0216   13.6101 C.ar    1  UNL1        0.0207
     17 C          64.2588   81.6403   12.5478 C.ar    1  UNL1        0.0989
     18 N          64.1009   83.0924   12.2068 N.ar    1  UNL1       -0.2407
     19 N          64.1110   88.9205   13.9278 N.pl3   1  UNL1       -0.3118
     20 H          64.4304   88.6949   14.8313 H       1  UNL1        0.1486
     21 C          64.2960   90.3092   13.3919 C.3     1  UNL1        0.1550
     22 C          68.3575   93.9648   15.8698 C.3     1  UNL1        0.0343
     23 C          67.3421   93.0509   15.2503 C.ar    1  UNL1        0.0165
     24 C          67.5423   92.5451   13.8525 C.ar    1  UNL1        0.0975
     25 N          66.5269   91.6312   13.2330 N.ar    1  UNL1       -0.2277
     26 C          65.3114   91.2231   14.0114 C.ar    1  UNL1        0.1589
     27 N          65.1112   91.7289   15.4093 N.ar    1  UNL1       -0.2277
     28 C          66.1266   92.6428   16.0287 C.ar    1  UNL1        0.0975
@<TRIPOS>BOND
     1    22    23    1
     2    23    24   ar
     3    24    25   ar
     4    25    26   ar
     5    26    21    1
     6    21    19    1
     7    19     1    1
     8     1     2   ar
     9     2     3   ar
    10     3     7    1
    11     7     8   ar
    12     8     9   ar
    13     9    10   ar
    14    10    11   ar
    15    11    12   ar
    16     3     4   ar
    17     4     5   ar
    18     5    13    1
    19    13    14   ar
    20    14    15   ar
    21    15    16   ar
    22    16    17   ar
    23    17    18   ar
    24     5     6   ar
    25    26    27   ar
    26    27    28   ar
    27    28    23   ar
    28     6     1   ar
    29    12     7   ar
    30    18    13   ar
    31    19    20    1
@<TRIPOS>MOLECULE
*****
 28 31 0 0 0
SMALL
GASTEIGER

@<TRIPOS>ATOM
      1 C          63.6671   91.2415   10.8867 C.ar    1  UNL1        0.1320
      2 C          62.7945   90.5061    9.9131 C.ar    1  UNL1        0.0532
      3 C          62.0679   89.2669   10.3448 C.ar    1  UNL1        0.0858
      4 N          62.2139   88.7631   11.7502 N.ar    1  UNL1       -0.2252
      5 C          63.0865   89.4985   12.7237 C.ar    1  UNL1        0.1813
      6 N          63.8131   90.7377   12.2919 N.ar    1  UNL1       -0.2105
      7 C          61.1953   88.5316    9.3713 C.ar    1  UNL1        0.0178
      8 C          60.2074   89.2858    8.5314 C.ar    1  UNL1        0.0015
      9 C          59.3348   88.5504    7.5579 C.ar    1  UNL1        0.0000
     10 C          59.4500   87.0608    7.4242 C.ar    1  UNL1        0.0000
     11 C          60.4378   86.3066    8.2640 C.ar    1  UNL1        0.0000
     12 C          61.3105   87.0420    9.2376 C.ar    1  UNL1        0.0015
     13 C          63.2325   88.9946   14.1289 C.ar    1  UNL1        0.1170
     14 C          63.8893   87.6710   14.3867 C.ar    1  UNL1        0.0223
     15 C          64.0352   87.1671   15.7920 C.ar    1  UNL1        0.0032
     16 C          63.5244   87.9870   16.9395 C.ar    1  UNL1        0.0207
     17 C          62.8676   89.3107   16.6818 C.ar    1  UNL1        0.0989
     18 N          62.7216   89.8145   15.2765 N.ar    1  UNL1       -0.2407
     19 N          64.3937   92.4807   10.4549 N.pl3   1  UNL1       -0.3118
     20 H          63.8914   93.2420   10.0843 H       1  UNL1        0.1486
     21 C          65.8857   92.5600   10.5877 C.3     1  UNL1        0.1550
     22 C          68.4036   92.8238   16.0275 C.3     1  UNL1        0.0343
     23 C          67.7741   92.7579   14.6675 C.ar    1  UNL1        0.0165
     24 C          66.4960   93.4946   14.3961 C.ar    1  UNL1        0.0975
     25 N          65.8666   93.4287   13.0362 N.ar    1  UNL1       -0.2277
     26 C          66.5152   92.6260   11.9477 C.ar    1  UNL1        0.1589
     27 N          67.7932   91.8892   12.2191 N.ar    1  UNL1       -0.2277
     28 C          68.4227   91.9552   13.5790 C.ar    1  UNL1        0.0975
@<TRIPOS>BOND
     1    22    23    1
     2    23    24   ar
     3    24    25   ar
     4    25    26   ar
     5    26    21    1
     6    21    19    1
     7    19     1    1
     8     1     2   ar
     9     2     3   ar
    10     3     7    1
    11     7     8   ar
    12     8     9   ar
    13     9    10   ar
    14    10    11   ar
    15    11    12   ar
    16     3     4   ar
    17     4     5   ar
    18     5    13    1
    19    13    14   ar
    20    14    15   ar
    21    15    16   ar
    22    16    17   ar
    23    17    18   ar
    24     5     6   ar
    25    26    27   ar
    26    27    28   ar
    27    28    23   ar
    28     6     1   ar
    29    12     7   ar
    30    18    13   ar
    31    19    20    1
@<TRIPOS>MOLECULE
*****
 28 31 0 0 0
SMALL
GASTEIGER

@<TRIPOS>ATOM
      1 C          63.6697   86.5759   13.3238 C.ar    1  UNL1        0.1320
      2 C          63.6167   85.0800   13.4226 C.ar    1  UNL1        0.0532
      3 C          62.8040   84.2917   12.4387 C.ar    1  UNL1        0.0858
      4 N          62.0443   84.9993   11.3559 N.ar    1  UNL1       -0.2252
      5 C          62.0973   86.4951   11.2572 C.ar    1  UNL1        0.1813
      6 N          62.9100   87.2834   12.2411 N.ar    1  UNL1       -0.2105
      7 C          62.7510   82.7960   12.5374 C.ar    1  UNL1        0.0178
      8 C          62.9497   81.9558   11.3107 C.ar    1  UNL1        0.0015
      9 C          62.8967   80.4600   11.4095 C.ar    1  UNL1        0.0000
     10 C          62.6450   79.8043   12.7349 C.ar    1  UNL1        0.0000
     11 C          62.4463   80.6444   13.9616 C.ar    1  UNL1        0.0000
     12 C          62.4993   82.1403   13.8629 C.ar    1  UNL1        0.0015
     13 C          61.3375   87.2026   10.1745 C.ar    1  UNL1        0.1170
     14 C          61.4232   88.6950   10.0506 C.ar    1  UNL1        0.0223
     15 C          60.6634   89.4025    8.9678 C.ar    1  UNL1        0.0032
     16 C          59.8181   88.6175    8.0091 C.ar    1  UNL1        0.0207
     17 C          59.7324   87.1251    8.1330 C.ar    1  UNL1        0.0989
     18 N          60.4921   86.4176    9.2157 N.ar    1  UNL1       -0.2407
     19 N          64.4824   87.3642   14.3077 N.pl3   1  UNL1       -0.3118
     20 H          65.3207   86.9911   14.6646 H       1  UNL1        0.1486
     21 C          64.0179   88.7208   14.7479 C.3     1  UNL1        0.1550
     22 C          65.8547   93.6197   11.8108 C.3     1  UNL1        0.0343
     23 C          65.3955   92.3950   12.5451 C.ar    1  UNL1        0.0165
     24 C          64.2451   91.5907   12.0163 C.ar    1  UNL1        0.0975
     25 N          63.7859   90.3660   12.7505 N.ar    1  UNL1       -0.2277
     26 C          64.4771   89.9455   14.0136 C.ar    1  UNL1        0.1589
     27 N          65.6275   90.7498   14.5424 N.ar    1  UNL1       -0.2277
     28 C          66.0867   91.9745   13.8082 C.ar    1  UNL1        0.0975
@<TRIPOS>BOND
     1    22    23    1
     2    23    24   ar
     3    24    25   ar
     4    25    26   ar
     5    26    21    1
     6    21    19    1
     7    19     1    1
     8     1     2   ar
     9     2     3   ar
    10     3     7    1
    11     7     8   ar
    12     8     9   ar
    13     9    10   ar
    14    10    11   ar
    15    11    12   ar
    16     3     4   ar
    17     4     5   ar
    18     5    13    1
    19    13    14   ar
    20    14    15   ar
    21    15    16   ar
    22    16    17   ar
    23    17    18   ar
    24     5     6   ar
    25    26    27   ar
    26    27    28   ar
    27    28    23   ar
    28     6     1   ar
    29    12     7   ar
    30    18    13   ar
    31    19    20    1
@<TRIPOS>MOLECULE
*****
 28 31 0 0 0
SMALL
GASTEIGER

@<TRIPOS>ATOM
      1 C          62.9714   89.5955   12.4192 C.ar    1  UNL1        0.1320
      2 C          62.1148   89.4460   11.1969 C.ar    1  UNL1        0.0532
      3 C          61.7219   88.0796   10.7189 C.ar    1  UNL1        0.0858
      4 N          62.1856   86.8626   11.4632 N.ar    1  UNL1       -0.2252
      5 C          63.0422   87.0121   12.6854 C.ar    1  UNL1        0.1813
      6 N          63.4351   88.3785   13.1634 N.ar    1  UNL1       -0.2105
      7 C          60.8653   87.9301    9.4967 C.ar    1  UNL1        0.0178
      8 C          60.5367   86.5631    8.9737 C.ar    1  UNL1        0.0015
      9 C          59.6801   86.4136    7.7515 C.ar    1  UNL1        0.0000
     10 C          59.1521   87.6310    7.0522 C.ar    1  UNL1        0.0000
     11 C          59.4807   88.9980    7.5751 C.ar    1  UNL1        0.0000
     12 C          60.3373   89.1475    8.7974 C.ar    1  UNL1        0.0015
     13 C          63.5059   85.7951   13.4297 C.ar    1  UNL1        0.1170
     14 C          63.7100   84.5013   12.6986 C.ar    1  UNL1        0.0223
     15 C          64.1738   83.2843   13.4429 C.ar    1  UNL1        0.0032
     16 C          64.4333   83.3611   14.9183 C.ar    1  UNL1        0.0207
     17 C          64.2292   84.6549   15.6493 C.ar    1  UNL1        0.0989
     18 N          63.7655   85.8719   14.9051 N.ar    1  UNL1       -0.2407
     19 N          63.3643   90.9619   12.8972 N.pl3   1  UNL1       -0.3118
     20 H          62.6706   91.6275   13.1092 H       1  UNL1        0.1486
     21 C          64.8141   91.3142   13.0521 C.3     1  UNL1        0.1550
     22 C          67.1415   95.8811    9.9334 C.3     1  UNL1        0.0343
     23 C          66.5597   94.7394   10.7131 C.ar    1  UNL1        0.0165
     24 C          66.1676   93.4737   10.0100 C.ar    1  UNL1        0.0975
     25 N          65.5857   92.3320   10.7897 N.ar    1  UNL1       -0.2277
     26 C          65.3959   92.4559   12.2724 C.ar    1  UNL1        0.1589
     27 N          65.7880   93.7216   12.9755 N.ar    1  UNL1       -0.2277
     28 C          66.3699   94.8633   12.1958 C.ar    1  UNL1        0.0975
@<TRIPOS>BOND
     1    22    23    1
     2    23    24   ar
     3    24    25   ar
     4    25    26   ar
     5    26    21    1
     6    21    19    1
     7    19     1    1
     8     1     2   ar
     9     2     3   ar
    10     3     7    1
    11     7     8   ar
    12     8     9   ar
    13     9    10   ar
    14    10    11   ar
    15    11    12   ar
    16     3     4   ar
    17     4     5   ar
    18     5    13    1
    19    13    14   ar
    20    14    15   ar
    21    15    16   ar
    22    16    17   ar
    23    17    18   ar
    24     5     6   ar
    25    26    27   ar
    26    27    28   ar
    27    28    23   ar
    28     6     1   ar
    29    12     7   ar
    30    18    13   ar
    31    19    20    1
