@<TRIPOS>MOLECULE
*****
 22 25 0 0 0
SMALL
GASTEIGER

@<TRIPOS>ATOM
      1 C          64.5352   90.4728   14.1553 C.3     1  UNL1        0.0024
      2 C          63.8715   89.5314   13.1945 C.3     1  UNL1        0.0247
      3 C          64.4532   88.8599   14.4032 C.3     1  UNL1        0.0023
      4 C          64.3391   87.3729   14.5627 C.3     1  UNL1        0.0004
      5 C          63.6433   86.5571   13.5137 C.3     1  UNL1        0.0035
      6 C          63.0616   87.2285   12.3051 C.3     1  UNL1        0.0007
      7 C          62.3658   86.4128   11.2561 C.3     1  UNL1        0.0044
      8 C          62.2517   84.9257   11.4156 C.3     1  UNL1        0.0221
      9 C          62.8335   84.2542   12.6243 C.2     1  UNL1       -0.0420
     10 C          62.7194   82.7672   12.7839 C.2     1  UNL1        0.0289
     11 C          63.3011   82.0958   13.9925 C.2     1  UNL1        0.1725
     12 O          63.1870   80.6086   14.1522 O.2     1  UNL1       -0.2914
     13 C          63.9969   82.9115   15.0416 C.3     1  UNL1        0.0694
     14 C          64.1110   84.3986   14.8820 C.3     1  UNL1        0.0118
     15 C          63.5293   85.0700   13.6734 C.3     1  UNL1        0.0157
     16 C          64.2250   85.8857   14.7224 C.3     1  UNL1        0.0041
     17 C          63.1757   88.7157   12.1454 C.3     1  UNL1        0.0023
     18 C          62.7039   89.6488   11.0700 C.3     1  UNL1        0.0026
     19 C          63.1081   91.0412   11.4544 C.3     1  UNL1        0.0292
     20 C          63.8297   90.9686   12.7674 C.3     1  UNL1        0.1104
     21 O          64.4080   92.1296   13.5209 O.3     1  UNL1       -0.3845
     22 H          64.2450   92.9487   13.0276 H       1  UNL1        0.2103
@<TRIPOS>BOND
     1     2     1    1
     2     2     3    1
     3     3     4    1
     4     5     4    1
     5     5     6    1
     6     6     7    1
     7     7     8    1
     8     8     9    1
     9     9    10    2
    10    10    11    1
    11    11    12    2
    12    11    13    1
    13    13    14    1
    14    14    15    1
    15    15    16    1
    16     6    17    1
    17    17    18    1
    18    18    19    1
    19    19    20    1
    20    20    21    1
    21    17     2    1
    22    20     2    1
    23    15     5    1
    24    15     9    1
    25    21    22    1
@<TRIPOS>MOLECULE
*****
 22 25 0 0 0
SMALL
GASTEIGER

@<TRIPOS>ATOM
      1 C          62.1641   89.4694   10.1450 C.3     1  UNL1        0.0024
      2 C          62.8169   89.0202   11.4186 C.3     1  UNL1        0.0247
      3 C          62.2333   87.9031   10.6051 C.3     1  UNL1        0.0023
      4 C          62.3354   86.4881   11.0920 C.3     1  UNL1        0.0004
      5 C          63.0211   86.1900   12.3924 C.3     1  UNL1        0.0035
      6 C          63.6047   87.3069   13.2059 C.3     1  UNL1        0.0007
      7 C          64.2904   87.0088   14.5063 C.3     1  UNL1        0.0044
      8 C          64.3925   85.5938   14.9932 C.3     1  UNL1        0.0221
      9 C          63.8089   84.4767   14.1797 C.2     1  UNL1       -0.0420
     10 C          63.9109   83.0617   14.6666 C.2     1  UNL1        0.0289
     11 C          63.3274   81.9447   13.8531 C.2     1  UNL1        0.1725
     12 O          63.4294   80.5295   14.3400 O.2     1  UNL1       -0.2914
     13 C          62.6417   82.2428   12.5528 C.3     1  UNL1        0.0694
     14 C          62.5396   83.6579   12.0658 C.3     1  UNL1        0.0118
     15 C          63.1232   84.7748   12.8793 C.3     1  UNL1        0.0157
     16 C          62.4375   85.0729   11.5789 C.3     1  UNL1        0.0041
     17 C          63.5026   88.7221   12.7190 C.3     1  UNL1        0.0023
     18 C          63.9789   90.0203   13.3001 C.3     1  UNL1        0.0026
     19 C          63.5876   91.1207   12.3589 C.3     1  UNL1        0.0292
     20 C          62.8694   90.5026   11.1961 C.3     1  UNL1        0.1104
     21 O          62.3032   91.2379   10.0176 O.3     1  UNL1       -0.3845
     22 H          62.4716   92.1879   10.1179 H       1  UNL1        0.2103
@<TRIPOS>BOND
     1     2     1    1
     2     2     3    1
     3     3     4    1
     4     5     4    1
     5     5     6    1
     6     6     7    1
     7     7     8    1
     8     8     9    1
     9     9    10    2
    10    10    11    1
    11    11    12    2
    12    11    13    1
    13    13    14    1
    14    14    15    1
    15    15    16    1
    16     6    17    1
    17    17    18    1
    18    18    19    1
    19    19    20    1
    20    20    21    1
    21    17     2    1
    22    20     2    1
    23    15     5    1
    24    15     9    1
    25    21    22    1
@<TRIPOS>MOLECULE
*****
 22 25 0 0 0
SMALL
GASTEIGER

@<TRIPOS>ATOM
      1 C          63.7453   83.9799   13.6136 C.3     1  UNL1        0.0024
      2 C          63.6107   85.4500   13.3473 C.3     1  UNL1        0.0247
      3 C          62.8788   84.5827   12.3664 C.3     1  UNL1        0.0023
      4 C          62.1031   85.2081   11.2452 C.3     1  UNL1        0.0004
      5 C          62.0593   86.7009   11.1049 C.3     1  UNL1        0.0035
      6 C          62.7912   87.5682   12.0858 C.3     1  UNL1        0.0007
      7 C          62.7473   89.0610   11.9454 C.3     1  UNL1        0.0044
      8 C          61.9716   89.6865   10.8243 C.3     1  UNL1        0.0221
      9 C          61.2397   88.8191    9.8434 C.2     1  UNL1       -0.0420
     10 C          60.4640   89.4446    8.7222 C.2     1  UNL1        0.0289
     11 C          59.7321   88.5773    7.7414 C.2     1  UNL1        0.1725
     12 O          58.9563   89.2027    6.6202 O.2     1  UNL1       -0.2914
     13 C          59.7759   87.0845    7.8817 C.3     1  UNL1        0.0694
     14 C          60.5516   86.4590    9.0029 C.3     1  UNL1        0.0118
     15 C          61.2835   87.3264    9.9837 C.3     1  UNL1        0.0157
     16 C          61.3273   85.8336   10.1240 C.3     1  UNL1        0.0041
     17 C          63.5669   86.9428   13.2070 C.3     1  UNL1        0.0023
     18 C          64.3811   87.5368   14.3178 C.3     1  UNL1        0.0026
     19 C          64.9282   86.4112   15.1447 C.3     1  UNL1        0.0292
     20 C          64.4521   85.1215   14.5448 C.3     1  UNL1        0.1104
     21 O          64.7628   83.7449   15.0533 O.3     1  UNL1       -0.3845
     22 H          65.3262   83.8104   15.8402 H       1  UNL1        0.2103
@<TRIPOS>BOND
     1     2     1    1
     2     2     3    1
     3     3     4    1
     4     5     4    1
     5     5     6    1
     6     6     7    1
     7     7     8    1
     8     8     9    1
     9     9    10    2
    10    10    11    1
    11    11    12    2
    12    11    13    1
    13    13    14    1
    14    14    15    1
    15    15    16    1
    16     6    17    1
    17    17    18    1
    18    18    19    1
    19    19    20    1
    20    20    21    1
    21    17     2    1
    22    20     2    1
    23    15     5    1
    24    15     9    1
    25    21    22    1
@<TRIPOS>MOLECULE
*****
 22 25 0 0 0
SMALL
GASTEIGER

@<TRIPOS>ATOM
      1 C          63.9977   82.0749   14.6554 C.3     1  UNL1        0.0024
      2 C          63.4745   82.9714   13.5725 C.3     1  UNL1        0.0247
      3 C          64.1428   83.7017   14.6995 C.3     1  UNL1        0.0023
      4 C          64.2386   85.1984   14.6710 C.3     1  UNL1        0.0004
      5 C          63.6662   85.9647   13.5155 C.3     1  UNL1        0.0035
      6 C          62.9980   85.2344   12.3886 C.3     1  UNL1        0.0007
      7 C          62.4255   86.0008   11.2331 C.3     1  UNL1        0.0044
      8 C          62.5214   87.4974   11.2046 C.3     1  UNL1        0.0221
      9 C          63.1897   88.2278   12.3316 C.2     1  UNL1       -0.0420
     10 C          63.2855   89.7244   12.3031 C.2     1  UNL1        0.0289
     11 C          63.9538   90.4547   13.4301 C.2     1  UNL1        0.1725
     12 O          64.0497   91.9514   13.4016 O.2     1  UNL1       -0.2914
     13 C          64.5262   89.6884   14.5855 C.3     1  UNL1        0.0694
     14 C          64.4304   88.1917   14.6140 C.3     1  UNL1        0.0118
     15 C          63.7621   87.4614   13.4871 C.3     1  UNL1        0.0157
     16 C          64.3345   86.6951   14.6425 C.3     1  UNL1        0.0041
     17 C          62.9021   83.7377   12.4170 C.3     1  UNL1        0.0023
     18 C          62.3057   82.7518   11.4569 C.3     1  UNL1        0.0026
     19 C          62.5094   81.3760   12.0189 C.3     1  UNL1        0.0292
     20 C          63.2318   81.5118   13.3264 C.3     1  UNL1        0.1104
     21 O          63.6399   80.3856   14.2293 O.3     1  UNL1       -0.3845
     22 H          63.3642   79.5417   13.8385 H       1  UNL1        0.2103
@<TRIPOS>BOND
     1     2     1    1
     2     2     3    1
     3     3     4    1
     4     5     4    1
     5     5     6    1
     6     6     7    1
     7     7     8    1
     8     8     9    1
     9     9    10    2
    10    10    11    1
    11    11    12    2
    12    11    13    1
    13    13    14    1
    14    14    15    1
    15    15    16    1
    16     6    17    1
    17    17    18    1
    18    18    19    1
    19    19    20    1
    20    20    21    1
    21    17     2    1
    22    20     2    1
    23    15     5    1
    24    15     9    1
    25    21    22    1
@<TRIPOS>MOLECULE
*****
 22 25 0 0 0
SMALL
GASTEIGER

@<TRIPOS>ATOM
      1 C          61.3473   89.5070    9.0561 C.3     1  UNL1        0.0024
      2 C          61.9368   89.0695   10.3642 C.3     1  UNL1        0.0247
      3 C          62.4016   90.4204    9.9069 C.3     1  UNL1        0.0023
      4 C          63.3721   91.2020   10.7419 C.3     1  UNL1        0.0004
      5 C          63.8778   90.6327   12.0342 C.3     1  UNL1        0.0035
      6 C          63.4130   89.2819   12.4916 C.3     1  UNL1        0.0007
      7 C          63.9187   88.7127   13.7840 C.3     1  UNL1        0.0044
      8 C          64.8891   89.4943   14.6190 C.3     1  UNL1        0.0221
      9 C          65.3540   90.8452   14.1617 C.2     1  UNL1       -0.0420
     10 C          66.3244   91.6268   14.9967 C.2     1  UNL1        0.0289
     11 C          66.7892   92.9776   14.5393 C.2     1  UNL1        0.1725
     12 O          67.7597   93.7593   15.3743 O.2     1  UNL1       -0.2914
     13 C          66.2835   93.5468   13.2469 C.3     1  UNL1        0.0694
     14 C          65.3130   92.7652   12.4119 C.3     1  UNL1        0.0118
     15 C          64.8483   91.4144   12.8693 C.3     1  UNL1        0.0157
     16 C          64.3426   91.9836   11.5769 C.3     1  UNL1        0.0041
     17 C          62.4425   88.5002   11.6566 C.3     1  UNL1        0.0023
     18 C          61.8107   87.1535   11.8486 C.3     1  UNL1        0.0026
     19 C          60.9145   86.8903   10.6749 C.3     1  UNL1        0.0292
     20 C          60.9925   88.0745    9.7575 C.3     1  UNL1        0.1104
     21 O          60.2554   88.2353    8.4610 O.3     1  UNL1       -0.3845
     22 H          59.7114   87.4489    8.2987 H       1  UNL1        0.2103
@<TRIPOS>BOND
     1     2     1    1
     2     2     3    1
     3     3     4    1
     4     5     4    1
     5     5     6    1
     6     6     7    1
     7     7     8    1
     8     8     9    1
     9     9    10    2
    10    10    11    1
    11    11    12    2
    12    11    13    1
    13    13    14    1
    14    14    15    1
    15    15    16    1
    16     6    17    1
    17    17    18    1
    18    18    19    1
    19    19    20    1
    20    20    21    1
    21    17     2    1
    22    20     2    1
    23    15     5    1
    24    15     9    1
    25    21    22    1
@<TRIPOS>MOLECULE
*****
 22 25 0 0 0
SMALL
GASTEIGER

@<TRIPOS>ATOM
      1 C          64.3319   91.9867   12.9690 C.3     1  UNL1        0.0024
      2 C          64.0100   90.5217   12.9690 C.3     1  UNL1        0.0247
      3 C          63.3801   91.2848   11.8416 C.3     1  UNL1        0.0023
      4 C          62.5171   90.5717   10.8432 C.3     1  UNL1        0.0004
      5 C          62.2840   89.0956   10.9722 C.3     1  UNL1        0.0035
      6 C          62.9138   88.3325   12.0995 C.3     1  UNL1        0.0007
      7 C          62.6807   86.8563   12.2285 C.3     1  UNL1        0.0044
      8 C          61.8177   86.1433   11.2301 C.3     1  UNL1        0.0221
      9 C          61.1878   86.9063   10.1027 C.2     1  UNL1       -0.0420
     10 C          60.3248   86.1933    9.1044 C.2     1  UNL1        0.0289
     11 C          59.6950   86.9564    7.9771 C.2     1  UNL1        0.1725
     12 O          58.8319   86.2433    6.9786 O.2     1  UNL1       -0.2914
     13 C          59.9281   88.4325    7.8481 C.3     1  UNL1        0.0694
     14 C          60.7911   89.1456    8.8465 C.3     1  UNL1        0.0118
     15 C          61.4209   88.3825    9.9738 C.3     1  UNL1        0.0157
     16 C          61.6540   89.8587    9.8448 C.3     1  UNL1        0.0041
     17 C          63.7769   89.0455   13.0980 C.3     1  UNL1        0.0023
     18 C          64.5245   88.5619   14.3050 C.3     1  UNL1        0.0026
     19 C          65.2197   89.7391   14.9221 C.3     1  UNL1        0.0292
     20 C          64.9017   90.9503   14.0963 C.3     1  UNL1        0.1104
     21 O          65.3898   92.3453   14.3530 O.3     1  UNL1       -0.3845
     22 H          65.9508   92.3511   15.1442 H       1  UNL1        0.2103
@<TRIPOS>BOND
     1     2     1    1
     2     2     3    1
     3     3     4    1
     4     5     4    1
     5     5     6    1
     6     6     7    1
     7     7     8    1
     8     8     9    1
     9     9    10    2
    10    10    11    1
    11    11    12    2
    12    11    13    1
    13    13    14    1
    14    14    15    1
    15    15    16    1
    16     6    17    1
    17    17    18    1
    18    18    19    1
    19    19    20    1
    20    20    21    1
    21    17     2    1
    22    20     2    1
    23    15     5    1
    24    15     9    1
    25    21    22    1
@<TRIPOS>MOLECULE
*****
 22 25 0 0 0
SMALL
GASTEIGER

@<TRIPOS>ATOM
      1 C          66.0625   91.1267   15.1341 C.3     1  UNL1        0.0024
      2 C          65.4795   91.5099   13.8062 C.3     1  UNL1        0.0247
      3 C          65.0288   90.1695   14.3066 C.3     1  UNL1        0.0023
      4 C          64.0769   89.3458   13.4909 C.3     1  UNL1        0.0004
      5 C          63.5758   89.8623   12.1748 C.3     1  UNL1        0.0035
      6 C          64.0265   91.2026   11.6744 C.3     1  UNL1        0.0007
      7 C          63.5254   91.7191   10.3583 C.3     1  UNL1        0.0044
      8 C          62.5735   90.8954    9.5427 C.3     1  UNL1        0.0221
      9 C          62.1227   89.5550   10.0431 C.2     1  UNL1       -0.0420
     10 C          61.1709   88.7313    9.2274 C.2     1  UNL1        0.0289
     11 C          60.7202   87.3910    9.7278 C.2     1  UNL1        0.1725
     12 O          59.7683   86.5671    8.9121 O.2     1  UNL1       -0.2914
     13 C          61.2213   86.8745   11.0439 C.3     1  UNL1        0.0694
     14 C          62.1732   87.6982   11.8595 C.3     1  UNL1        0.0118
     15 C          62.6239   89.0385   11.3591 C.3     1  UNL1        0.0157
     16 C          63.1250   88.5220   12.6752 C.3     1  UNL1        0.0041
     17 C          64.9784   92.0264   12.4901 C.3     1  UNL1        0.0023
     18 C          65.5937   93.3743   12.2565 C.3     1  UNL1        0.0026
     19 C          66.4751   93.6908   13.4282 C.3     1  UNL1        0.0292
     20 C          66.4045   92.5385   14.3859 C.3     1  UNL1        0.1104
     21 O          67.1314   92.4334   15.6939 O.3     1  UNL1       -0.3845
     22 H          67.6632   93.2326   15.8334 H       1  UNL1        0.2103
@<TRIPOS>BOND
     1     2     1    1
     2     2     3    1
     3     3     4    1
     4     5     4    1
     5     5     6    1
     6     6     7    1
     7     7     8    1
     8     8     9    1
     9     9    10    2
    10    10    11    1
    11    11    12    2
    12    11    13    1
    13    13    14    1
    14    14    15    1
    15    15    16    1
    16     6    17    1
    17    17    18    1
    18    18    19    1
    19    19    20    1
    20    20    21    1
    21    17     2    1
    22    20     2    1
    23    15     5    1
    24    15     9    1
    25    21    22    1
@<TRIPOS>MOLECULE
*****
 22 25 0 0 0
SMALL
GASTEIGER

@<TRIPOS>ATOM
      1 C          62.5257   82.0796   11.5171 C.3     1  UNL1        0.0024
      2 C          63.1196   82.9543   12.5811 C.3     1  UNL1        0.0247
      3 C          62.5364   83.7109   11.4246 C.3     1  UNL1        0.0023
      4 C          62.5829   85.2100   11.4090 C.3     1  UNL1        0.0004
      5 C          63.2126   85.9527   12.5500 C.3     1  UNL1        0.0035
      6 C          63.7959   85.1963   13.7065 C.3     1  UNL1        0.0007
      7 C          64.4256   85.9390   14.8475 C.3     1  UNL1        0.0044
      8 C          64.4721   87.4381   14.8319 C.3     1  UNL1        0.0221
      9 C          63.8889   88.1947   13.6754 C.2     1  UNL1       -0.0420
     10 C          63.9354   89.6938   13.6599 C.2     1  UNL1        0.0289
     11 C          63.3522   90.4503   12.5034 C.2     1  UNL1        0.1725
     12 O          63.3987   91.9496   12.4878 O.2     1  UNL1       -0.2914
     13 C          62.7224   89.7076   11.3624 C.3     1  UNL1        0.0694
     14 C          62.6759   88.2085   11.3779 C.3     1  UNL1        0.0118
     15 C          63.2591   87.4520   12.5344 C.3     1  UNL1        0.0157
     16 C          62.6294   86.7093   11.3935 C.3     1  UNL1        0.0041
     17 C          63.7494   83.6970   13.7221 C.3     1  UNL1        0.0023
     18 C          64.2387   82.6880   14.7182 C.3     1  UNL1        0.0026
     19 C          63.9114   81.3216   14.1929 C.3     1  UNL1        0.0292
     20 C          63.2197   81.4863   12.8721 C.3     1  UNL1        0.1104
     21 O          62.7166   80.3775   11.9961 O.3     1  UNL1       -0.3845
     22 H          62.9065   79.5232   12.4146 H       1  UNL1        0.2103
@<TRIPOS>BOND
     1     2     1    1
     2     2     3    1
     3     3     4    1
     4     5     4    1
     5     5     6    1
     6     6     7    1
     7     7     8    1
     8     8     9    1
     9     9    10    2
    10    10    11    1
    11    11    12    2
    12    11    13    1
    13    13    14    1
    14    14    15    1
    15    15    16    1
    16     6    17    1
    17    17    18    1
    18    18    19    1
    19    19    20    1
    20    20    21    1
    21    17     2    1
    22    20     2    1
    23    15     5    1
    24    15     9    1
    25    21    22    1
@<TRIPOS>MOLECULE
*****
 22 25 0 0 0
SMALL
GASTEIGER

@<TRIPOS>ATOM
      1 C          59.8562   89.2509    7.8403 C.3     1  UNL1        0.0024
      2 C          60.5406   88.3971    8.8663 C.3     1  UNL1        0.0247
      3 C          60.8129   89.8648    9.0139 C.3     1  UNL1        0.0023
      4 C          61.7029   90.3552   10.1173 C.3     1  UNL1        0.0004
      5 C          62.3205   89.3780   11.0731 C.3     1  UNL1        0.0035
      6 C          62.0482   87.9104   10.9255 C.3     1  UNL1        0.0007
      7 C          62.6658   86.9332   11.8813 C.3     1  UNL1        0.0044
      8 C          63.5557   87.4236   12.9847 C.3     1  UNL1        0.0221
      9 C          63.8281   88.8913   13.1323 C.2     1  UNL1       -0.0420
     10 C          64.7180   89.3817   14.2357 C.2     1  UNL1        0.0289
     11 C          64.9903   90.8494   14.3832 C.2     1  UNL1        0.1725
     12 O          65.8803   91.3399   15.4866 O.2     1  UNL1       -0.2914
     13 C          64.3727   91.8266   13.4274 C.3     1  UNL1        0.0694
     14 C          63.4828   91.3362   12.3240 C.3     1  UNL1        0.0118
     15 C          63.2105   89.8685   12.1765 C.3     1  UNL1        0.0157
     16 C          62.5928   90.8457   11.2207 C.3     1  UNL1        0.0041
     17 C          61.1582   87.4199    9.8221 C.3     1  UNL1        0.0023
     18 C          60.7109   86.0428    9.4306 C.3     1  UNL1        0.0026
     19 C          59.8168   86.1688    8.2328 C.3     1  UNL1        0.0292
     20 C          59.7116   87.6239    7.8841 C.3     1  UNL1        0.1104
     21 O          58.9168   88.2039    6.7518 O.3     1  UNL1       -0.3845
     22 H          58.4728   87.4893    6.2691 H       1  UNL1        0.2103
@<TRIPOS>BOND
     1     2     1    1
     2     2     3    1
     3     3     4    1
     4     5     4    1
     5     5     6    1
     6     6     7    1
     7     7     8    1
     8     8     9    1
     9     9    10    2
    10    10    11    1
    11    11    12    2
    12    11    13    1
    13    13    14    1
    14    14    15    1
    15    15    16    1
    16     6    17    1
    17    17    18    1
    18    18    19    1
    19    19    20    1
    20    20    21    1
    21    17     2    1
    22    20     2    1
    23    15     5    1
    24    15     9    1
    25    21    22    1
