@<TRIPOS>MOLECULE
*****
 23 25 0 0 0
SMALL
GASTEIGER

@<TRIPOS>ATOM
      1 C          65.8354   94.0126   10.9131 C.ar    1  UNL1        0.1655
      2 N          66.4725   94.2356   12.2527 N.ar    1  UNL1       -0.2239
      3 C          66.0385   93.1251   13.1630 C.ar    1  UNL1        0.0892
      4 C          66.3508   92.8245   14.5989 C.ar    1  UNL1        0.0197
      5 C          65.7577   91.6146   15.2580 C.ar    1  UNL1        0.0016
      6 C          64.8523   90.7054   14.4810 C.ar    1  UNL1        0.0021
      7 C          64.5400   91.0061   13.0450 C.ar    1  UNL1        0.0081
      8 C          65.1332   92.2159   12.3860 C.ar    1  UNL1        0.0497
      9 S          65.0076   92.7645   10.9956 S.2     1  UNL1       -0.0514
     10 C          64.2592   89.4955   15.1401 C.ar    1  UNL1        0.0193
     11 C          63.4545   89.6449   16.3971 C.ar    1  UNL1        0.0044
     12 C          62.8614   88.4349   17.0562 C.ar    1  UNL1        0.0339
     13 C          63.0729   87.0756   16.4582 C.ar    1  UNL1        0.1254
     14 N          62.4799   85.8658   17.1173 N.pl3   1  UNL1       -0.3426
     15 N          63.8776   86.9263   15.2011 N.ar    1  UNL1       -0.2296
     16 C          64.4707   88.1362   14.5421 C.ar    1  UNL1        0.1002
     17 H          61.9517   85.9638   17.9423 H       1  UNL1        0.1437
     18 H          62.6187   84.9736   16.7248 H       1  UNL1        0.1437
     19 C          67.5016   95.8845    7.8358 C.3     1  UNL1        0.0950
     20 C          67.3394   95.0124    9.0454 C.2     1  UNL1        0.2280
     21 O          68.5191   94.2679    9.5968 O.2     1  UNL1       -0.2747
     22 N          65.9976   94.8848    9.7035 N.am    1  UNL1       -0.2641
     23 H          65.2233   95.3734    9.3416 H       1  UNL1        0.1567
@<TRIPOS>BOND
     1    19    20    1
     2    20    21    2
     3    20    22   am
     4    22     1    1
     5     1     2   ar
     6     2     3   ar
     7     3     4   ar
     8     4     5   ar
     9     5     6   ar
    10     6    10    1
    11    10    11   ar
    12    11    12   ar
    13    12    13   ar
    14    13    14    1
    15    13    15   ar
    16    15    16   ar
    17     6     7   ar
    18     7     8   ar
    19     8     9   ar
    20     9     1   ar
    21     8     3   ar
    22    16    10   ar
    23    22    23    1
    24    14    17    1
    25    14    18    1
@<TRIPOS>MOLECULE
*****
 23 25 0 0 0
SMALL
GASTEIGER

@<TRIPOS>ATOM
      1 C          65.3280   91.5198   14.1322 C.ar    1  UNL1        0.1655
      2 N          65.1700   92.3677   12.9049 N.ar    1  UNL1       -0.2239
      3 C          64.2869   91.6301   11.9425 C.ar    1  UNL1        0.0892
      4 C          63.7858   91.9772   10.5720 C.ar    1  UNL1        0.0197
      5 C          62.8969   91.0206    9.8340 C.ar    1  UNL1        0.0016
      6 C          62.5091   89.7169   10.4665 C.ar    1  UNL1        0.0021
      7 C          63.0102   89.3698   11.8370 C.ar    1  UNL1        0.0081
      8 C          63.8991   90.3264   12.5750 C.ar    1  UNL1        0.0497
      9 S          64.5426   90.2583   13.9283 S.2     1  UNL1       -0.0514
     10 C          61.6202   88.7603    9.7284 C.ar    1  UNL1        0.0193
     11 C          61.9347   87.2936    9.7263 C.ar    1  UNL1        0.0044
     12 C          61.0457   86.3370    8.9882 C.ar    1  UNL1        0.0339
     13 C          59.8423   86.8471    8.2522 C.ar    1  UNL1        0.1254
     14 N          58.9534   85.8905    7.5141 N.pl3   1  UNL1       -0.3426
     15 N          59.5279   88.3138    8.2544 N.ar    1  UNL1       -0.2296
     16 C          60.4168   89.2703    8.9925 C.ar    1  UNL1        0.1002
     17 H          59.1598   84.9279    7.5127 H       1  UNL1        0.1437
     18 H          58.1636   86.2253    7.0311 H       1  UNL1        0.1437
     19 C          68.3973   92.5231   16.4393 C.3     1  UNL1        0.0950
     20 C          67.5948   92.1712   15.2219 C.2     1  UNL1        0.2280
     21 O          68.2566   92.1186   13.8767 O.2     1  UNL1       -0.2747
     22 N          66.1306   91.8718   15.3496 N.am    1  UNL1       -0.2641
     23 H          65.6963   91.9063   16.2325 H       1  UNL1        0.1567
@<TRIPOS>BOND
     1    19    20    1
     2    20    21    2
     3    20    22   am
     4    22     1    1
     5     1     2   ar
     6     2     3   ar
     7     3     4   ar
     8     4     5   ar
     9     5     6   ar
    10     6    10    1
    11    10    11   ar
    12    11    12   ar
    13    12    13   ar
    14    13    14    1
    15    13    15   ar
    16    15    16   ar
    17     6     7   ar
    18     7     8   ar
    19     8     9   ar
    20     9     1   ar
    21     8     3   ar
    22    16    10   ar
    23    22    23    1
    24    14    17    1
    25    14    18    1
@<TRIPOS>MOLECULE
*****
 23 25 0 0 0
SMALL
GASTEIGER

@<TRIPOS>ATOM
      1 C          61.4675   89.7619   10.3872 C.ar    1  UNL1        0.1655
      2 N          61.7112   88.8036   11.5152 N.ar    1  UNL1       -0.2239
      3 C          62.8312   89.3475   12.3518 C.ar    1  UNL1        0.0892
      4 C          63.5006   88.8314   13.5909 C.ar    1  UNL1        0.0197
      5 C          64.6184   89.6096   14.2191 C.ar    1  UNL1        0.0016
      6 C          65.0669   90.9041   13.6081 C.ar    1  UNL1        0.0021
      7 C          64.3975   91.4202   12.3690 C.ar    1  UNL1        0.0081
      8 C          63.2797   90.6420   11.7408 C.ar    1  UNL1        0.0497
      9 S          62.4369   90.8980   10.5267 S.2     1  UNL1       -0.0514
     10 C          66.1848   91.6824   14.2364 C.ar    1  UNL1        0.0193
     11 C          66.0255   92.2402   15.6196 C.ar    1  UNL1        0.0044
     12 C          67.1434   93.0185   16.2478 C.ar    1  UNL1        0.0339
     13 C          68.4206   93.2389   15.4928 C.ar    1  UNL1        0.1254
     14 N          69.5385   94.0171   16.1209 N.pl3   1  UNL1       -0.3426
     15 N          68.5799   92.6810   14.1095 N.ar    1  UNL1       -0.2296
     16 C          67.4621   91.9027   13.4813 C.ar    1  UNL1        0.1002
     17 H          69.4339   94.3833   17.0288 H       1  UNL1        0.1437
     18 H          70.3768   94.1617   15.6253 H       1  UNL1        0.1437
     19 C          59.2452   88.1461    7.5236 C.3     1  UNL1        0.0950
     20 C          60.2771   88.2974    8.6017 C.2     1  UNL1        0.2280
     21 O          61.1504   87.1355    8.9724 O.2     1  UNL1       -0.2747
     22 N          60.4356   89.6105    9.3091 N.am    1  UNL1       -0.2641
     23 H          59.8625   90.3731    9.0658 H       1  UNL1        0.1567
@<TRIPOS>BOND
     1    19    20    1
     2    20    21    2
     3    20    22   am
     4    22     1    1
     5     1     2   ar
     6     2     3   ar
     7     3     4   ar
     8     4     5   ar
     9     5     6   ar
    10     6    10    1
    11    10    11   ar
    12    11    12   ar
    13    12    13   ar
    14    13    14    1
    15    13    15   ar
    16    15    16   ar
    17     6     7   ar
    18     7     8   ar
    19     8     9   ar
    20     9     1   ar
    21     8     3   ar
    22    16    10   ar
    23    22    23    1
    24    14    17    1
    25    14    18    1
@<TRIPOS>MOLECULE
*****
 23 25 0 0 0
SMALL
GASTEIGER

@<TRIPOS>ATOM
      1 C          66.1210   92.5056   14.0136 C.ar    1  UNL1        0.1655
      2 N          65.7736   91.2209   14.7057 N.ar    1  UNL1       -0.2239
      3 C          64.8092   90.4714   13.8350 C.ar    1  UNL1        0.0892
      4 C          64.1254   89.1470   14.0034 C.ar    1  UNL1        0.0197
      5 C          63.1929   88.6441   12.9416 C.ar    1  UNL1        0.0016
      6 C          62.9442   89.4655   11.7114 C.ar    1  UNL1        0.0021
      7 C          63.6280   90.7898   11.5430 C.ar    1  UNL1        0.0081
      8 C          64.5606   91.2928   12.6047 C.ar    1  UNL1        0.0497
      9 S          65.3713   92.5500   12.7152 S.2     1  UNL1       -0.0514
     10 C          62.0116   88.9625   10.6496 C.ar    1  UNL1        0.0193
     11 C          62.1300   87.5515   10.1545 C.ar    1  UNL1        0.0044
     12 C          61.1974   87.0485    9.0927 C.ar    1  UNL1        0.0339
     13 C          60.1465   87.9566    8.5260 C.ar    1  UNL1        0.1254
     14 N          59.2140   87.4536    7.4642 N.pl3   1  UNL1       -0.3426
     15 N          60.0282   89.3676    9.0211 N.ar    1  UNL1       -0.2296
     16 C          60.9608   89.8705   10.0829 C.ar    1  UNL1        0.1002
     17 H          59.2916   86.5276    7.1393 H       1  UNL1        0.1437
     18 H          58.5243   88.0496    7.0923 H       1  UNL1        0.1437
     19 C          69.0557   94.2536   16.0340 C.3     1  UNL1        0.0950
     20 C          68.1225   93.1986   15.5182 C.2     1  UNL1        0.2280
     21 O          68.2575   91.7815   15.9912 O.2     1  UNL1       -0.2747
     22 N          67.0542   93.5606   14.5294 N.am    1  UNL1       -0.2641
     23 H          66.9656   94.4906   14.2189 H       1  UNL1        0.1567
@<TRIPOS>BOND
     1    19    20    1
     2    20    21    2
     3    20    22   am
     4    22     1    1
     5     1     2   ar
     6     2     3   ar
     7     3     4   ar
     8     4     5   ar
     9     5     6   ar
    10     6    10    1
    11    10    11   ar
    12    11    12   ar
    13    12    13   ar
    14    13    14    1
    15    13    15   ar
    16    15    16   ar
    17     6     7   ar
    18     7     8   ar
    19     8     9   ar
    20     9     1   ar
    21     8     3   ar
    22    16    10   ar
    23    22    23    1
    24    14    17    1
    25    14    18    1
@<TRIPOS>MOLECULE
*****
 23 25 0 0 0
SMALL
GASTEIGER

@<TRIPOS>ATOM
      1 C          59.3337   89.0052    7.6142 C.ar    1  UNL1        0.1655
      2 N          60.2376   89.7027    8.5870 N.ar    1  UNL1       -0.2239
      3 C          60.9516   88.6554    9.3893 C.ar    1  UNL1        0.0892
      4 C          61.9632   88.7526   10.4925 C.ar    1  UNL1        0.0197
      5 C          62.5122   87.5050   11.1186 C.ar    1  UNL1        0.0016
      6 C          62.0495   86.1603   10.6416 C.ar    1  UNL1        0.0021
      7 C          61.0379   86.0631    9.5383 C.ar    1  UNL1        0.0081
      8 C          60.4890   87.3107    8.9122 C.ar    1  UNL1        0.0497
      9 S          59.4891   87.5269    7.8152 S.2     1  UNL1       -0.0514
     10 C          62.5986   84.9126   11.2678 C.ar    1  UNL1        0.0193
     11 C          63.3099   83.8991   10.4213 C.ar    1  UNL1        0.0044
     12 C          63.8590   82.6514   11.0475 C.ar    1  UNL1        0.0339
     13 C          63.6965   82.4174   12.5202 C.ar    1  UNL1        0.1254
     14 N          64.2455   81.1699   13.1464 N.pl3   1  UNL1       -0.3426
     15 N          62.9851   83.4311   13.3667 N.ar    1  UNL1       -0.2296
     16 C          62.4361   84.6786   12.7405 C.ar    1  UNL1        0.1002
     17 H          64.7124   80.5046   12.5909 H       1  UNL1        0.1437
     18 H          64.1389   81.0163   14.1130 H       1  UNL1        0.1437
     19 C          58.1051   91.2726    4.5977 C.3     1  UNL1        0.0950
     20 C          59.0061   90.6084    5.5962 C.2     1  UNL1        0.2280
     21 O          60.4806   90.8832    5.5751 O.2     1  UNL1       -0.2747
     22 N          58.4327   89.6694    6.6157 N.am    1  UNL1       -0.2641
     23 H          57.4650   89.4891    6.6295 H       1  UNL1        0.1567
@<TRIPOS>BOND
     1    19    20    1
     2    20    21    2
     3    20    22   am
     4    22     1    1
     5     1     2   ar
     6     2     3   ar
     7     3     4   ar
     8     4     5   ar
     9     5     6   ar
    10     6    10    1
    11    10    11   ar
    12    11    12   ar
    13    12    13   ar
    14    13    14    1
    15    13    15   ar
    16    15    16   ar
    17     6     7   ar
    18     7     8   ar
    19     8     9   ar
    20     9     1   ar
    21     8     3   ar
    22    16    10   ar
    23    22    23    1
    24    14    17    1
    25    14    18    1
@<TRIPOS>MOLECULE
*****
 23 25 0 0 0
SMALL
GASTEIGER

@<TRIPOS>ATOM
      1 C          65.1049   91.0822   14.5548 C.ar    1  UNL1        0.1655
      2 N          65.1035   89.6414   14.9722 N.ar    1  UNL1       -0.2239
      3 C          64.3015   88.8685   13.9675 C.ar    1  UNL1        0.0892
      4 C          63.9574   87.4122   13.8641 C.ar    1  UNL1        0.0197
      5 C          63.1191   86.9190   12.7222 C.ar    1  UNL1        0.0016
      6 C          62.6248   87.8821   11.6839 C.ar    1  UNL1        0.0021
      7 C          62.9688   89.3384   11.7874 C.ar    1  UNL1        0.0081
      8 C          63.8072   89.8316   12.9292 C.ar    1  UNL1        0.0497
      9 S          64.3037   91.1997   13.2922 S.2     1  UNL1       -0.0514
     10 C          61.7864   87.3888   10.5420 C.ar    1  UNL1        0.0193
     11 C          60.3809   87.8852   10.3742 C.ar    1  UNL1        0.0044
     12 C          59.5425   87.3919    9.2323 C.ar    1  UNL1        0.0339
     13 C          60.1097   86.4021    8.2583 C.ar    1  UNL1        0.1254
     14 N          59.2713   85.9088    7.1164 N.pl3   1  UNL1       -0.3426
     15 N          61.5152   85.9057    8.4261 N.ar    1  UNL1       -0.2296
     16 C          62.3535   86.3990    9.5679 C.ar    1  UNL1        0.1002
     17 H          58.3489   86.2347    7.0063 H       1  UNL1        0.1437
     18 H          59.6436   85.2592    6.4771 H       1  UNL1        0.1437
     19 C          67.9010   93.6621   15.6845 C.3     1  UNL1        0.0950
     20 C          67.2183   92.5365   14.9655 C.2     1  UNL1        0.2280
     21 O          67.9663   91.7396   13.9382 O.2     1  UNL1       -0.2747
     22 N          65.7876   92.2078   15.2738 N.am    1  UNL1       -0.2641
     23 H          65.2966   92.7308   15.9481 H       1  UNL1        0.1567
@<TRIPOS>BOND
     1    19    20    1
     2    20    21    2
     3    20    22   am
     4    22     1    1
     5     1     2   ar
     6     2     3   ar
     7     3     4   ar
     8     4     5   ar
     9     5     6   ar
    10     6    10    1
    11    10    11   ar
    12    11    12   ar
    13    12    13   ar
    14    13    14    1
    15    13    15   ar
    16    15    16   ar
    17     6     7   ar
    18     7     8   ar
    19     8     9   ar
    20     9     1   ar
    21     8     3   ar
    22    16    10   ar
    23    22    23    1
    24    14    17    1
    25    14    18    1
@<TRIPOS>MOLECULE
*****
 23 25 0 0 0
SMALL
GASTEIGER

@<TRIPOS>ATOM
      1 C          62.8799   84.5291   13.2191 C.ar    1  UNL1        0.1655
      2 N          62.4025   85.5539   12.2333 N.ar    1  UNL1       -0.2239
      3 C          62.9778   86.8814   12.6292 C.ar    1  UNL1        0.0892
      4 C          62.8508   88.2498   12.0283 C.ar    1  UNL1        0.0197
      5 C          63.5568   89.4139   12.6579 C.ar    1  UNL1        0.0016
      6 C          64.3899   89.2095   13.8884 C.ar    1  UNL1        0.0021
      7 C          64.5169   87.8411   14.4894 C.ar    1  UNL1        0.0081
      8 C          63.8109   86.6770   13.8598 C.ar    1  UNL1        0.0497
      9 S          63.7503   85.2232   14.2243 S.2     1  UNL1       -0.0514
     10 C          65.0959   90.3737   14.5180 C.ar    1  UNL1        0.0193
     11 C          66.5065   90.6977   14.1240 C.ar    1  UNL1        0.0044
     12 C          67.2125   91.8618   14.7536 C.ar    1  UNL1        0.0339
     13 C          66.5079   92.7019   15.7772 C.ar    1  UNL1        0.1254
     14 N          67.2139   93.8660   16.4068 N.pl3   1  UNL1       -0.3426
     15 N          65.0973   92.3779   16.1712 N.ar    1  UNL1       -0.2296
     16 C          64.3913   91.2138   15.5416 C.ar    1  UNL1        0.1002
     17 H          68.1397   94.0787   16.1482 H       1  UNL1        0.1437
     18 H          66.7514   94.4174   17.0786 H       1  UNL1        0.1437
     19 C          62.8371   80.7038   12.1630 C.3     1  UNL1        0.0950
     20 C          63.1714   82.1660   12.1795 C.2     1  UNL1        0.2280
     21 O          64.1316   82.7273   11.1729 O.2     1  UNL1       -0.2747
     22 N          62.5456   83.0669   13.2025 N.am    1  UNL1       -0.2641
     23 H          61.9154   82.6986   13.8632 H       1  UNL1        0.1567
@<TRIPOS>BOND
     1    19    20    1
     2    20    21    2
     3    20    22   am
     4    22     1    1
     5     1     2   ar
     6     2     3   ar
     7     3     4   ar
     8     4     5   ar
     9     5     6   ar
    10     6    10    1
    11    10    11   ar
    12    11    12   ar
    13    12    13   ar
    14    13    14    1
    15    13    15   ar
    16    15    16   ar
    17     6     7   ar
    18     7     8   ar
    19     8     9   ar
    20     9     1   ar
    21     8     3   ar
    22    16    10   ar
    23    22    23    1
    24    14    17    1
    25    14    18    1
@<TRIPOS>MOLECULE
*****
 23 25 0 0 0
SMALL
GASTEIGER

@<TRIPOS>ATOM
      1 C          61.7063   86.3422    9.3362 C.ar    1  UNL1        0.1655
      2 N          62.2303   85.4476   10.4202 N.ar    1  UNL1       -0.2239
      3 C          62.7291   86.3158   11.5371 C.ar    1  UNL1        0.0892
      4 C          63.3517   85.9880   12.8618 C.ar    1  UNL1        0.0197
      5 C          63.7587   87.0915   13.7927 C.ar    1  UNL1        0.0016
      6 C          63.5430   88.5227   13.3990 C.ar    1  UNL1        0.0021
      7 C          62.9203   88.8505   12.0743 C.ar    1  UNL1        0.0081
      8 C          62.5133   87.7470   11.1434 C.ar    1  UNL1        0.0497
      9 S          61.8813   87.7633    9.7832 S.2     1  UNL1       -0.0514
     10 C          63.9500   89.6262   14.3300 C.ar    1  UNL1        0.0193
     11 C          65.1309   90.4898   13.9986 C.ar    1  UNL1        0.0044
     12 C          65.5379   91.5933   14.9296 C.ar    1  UNL1        0.0339
     13 C          64.7640   91.8331   16.1920 C.ar    1  UNL1        0.1254
     14 N          65.1710   92.9366   17.1230 N.pl3   1  UNL1       -0.3426
     15 N          63.5831   90.9695   16.5234 N.ar    1  UNL1       -0.2296
     16 C          63.1762   89.8661   15.5924 C.ar    1  UNL1        0.1002
     17 H          65.9460   93.5034   16.9055 H       1  UNL1        0.1437
     18 H          64.6631   93.0940   17.9515 H       1  UNL1        0.1437
     19 C          61.2707   84.4936    5.8515 C.3     1  UNL1        0.0950
     20 C          61.8652   84.9415    7.1538 C.2     1  UNL1        0.2280
     21 O          63.2131   84.4365    7.5761 O.2     1  UNL1       -0.2747
     22 N          61.1118   85.8943    8.0339 N.am    1  UNL1       -0.2641
     23 H          60.2272   86.2258    7.7568 H       1  UNL1        0.1567
@<TRIPOS>BOND
     1    19    20    1
     2    20    21    2
     3    20    22   am
     4    22     1    1
     5     1     2   ar
     6     2     3   ar
     7     3     4   ar
     8     4     5   ar
     9     5     6   ar
    10     6    10    1
    11    10    11   ar
    12    11    12   ar
    13    12    13   ar
    14    13    14    1
    15    13    15   ar
    16    15    16   ar
    17     6     7   ar
    18     7     8   ar
    19     8     9   ar
    20     9     1   ar
    21     8     3   ar
    22    16    10   ar
    23    22    23    1
    24    14    17    1
    25    14    18    1
@<TRIPOS>MOLECULE
*****
 23 25 0 0 0
SMALL
GASTEIGER

@<TRIPOS>ATOM
      1 C          63.7983   89.9736   14.2141 C.ar    1  UNL1        0.1655
      2 N          63.9071   88.5285   14.6014 N.ar    1  UNL1       -0.2239
      3 C          63.5107   87.6997   13.4157 C.ar    1  UNL1        0.0892
      4 C          63.4262   86.2161   13.2113 C.ar    1  UNL1        0.0197
      5 C          62.9878   85.6653   11.8868 C.ar    1  UNL1        0.0016
      6 C          62.6339   86.5981   10.7667 C.ar    1  UNL1        0.0021
      7 C          62.7184   88.0817   10.9711 C.ar    1  UNL1        0.0081
      8 C          63.1568   88.6325   12.2956 C.ar    1  UNL1        0.0497
      9 S          63.3345   90.0378   12.7891 S.2     1  UNL1       -0.0514
     10 C          62.1955   86.0473    9.4421 C.ar    1  UNL1        0.0193
     11 C          63.1460   85.2305    8.6178 C.ar    1  UNL1        0.0044
     12 C          62.7077   84.6797    7.2932 C.ar    1  UNL1        0.0339
     13 C          61.3188   84.9456    6.7930 C.ar    1  UNL1        0.1254
     14 N          60.8804   84.3948    5.4685 N.pl3   1  UNL1       -0.3426
     15 N          60.3682   85.7624    7.6174 N.ar    1  UNL1       -0.2296
     16 C          60.8066   86.3132    8.9419 C.ar    1  UNL1        0.1002
     17 H          61.5042   83.8587    4.9275 H       1  UNL1        0.1437
     18 H          59.9688   84.5693    5.1402 H       1  UNL1        0.1437
     19 C          65.8177   92.7877   16.1513 C.3     1  UNL1        0.0950
     20 C          65.5158   91.6131   15.2685 C.2     1  UNL1        0.2280
     21 O          66.6298   90.9035   14.5573 O.2     1  UNL1       -0.2747
     22 N          64.1001   91.1481   15.0969 N.am    1  UNL1       -0.2641
     23 H          63.3690   91.6139   15.5636 H       1  UNL1        0.1567
@<TRIPOS>BOND
     1    19    20    1
     2    20    21    2
     3    20    22   am
     4    22     1    1
     5     1     2   ar
     6     2     3   ar
     7     3     4   ar
     8     4     5   ar
     9     5     6   ar
    10     6    10    1
    11    10    11   ar
    12    11    12   ar
    13    12    13   ar
    14    13    14    1
    15    13    15   ar
    16    15    16   ar
    17     6     7   ar
    18     7     8   ar
    19     8     9   ar
    20     9     1   ar
    21     8     3   ar
    22    16    10   ar
    23    22    23    1
    24    14    17    1
    25    14    18    1
