@<TRIPOS>MOLECULE
*****
 24 26 0 0 0
SMALL
GASTEIGER

@<TRIPOS>ATOM
      1 C          62.7829   83.4493   13.9204 C.3     1  UNL1        0.1154
      2 C          64.2294   82.1224   13.4999 C.3     1  UNL1        0.0335
      3 C          63.5182   83.1346   12.6515 C.3     1  UNL1        0.1377
      4 C          62.6534   84.2125   12.0683 C.3     1  UNL1        0.0613
      5 C          63.0029   84.3525   10.6163 C.3     1  UNL1        0.1290
      6 C          63.4575   84.3780    9.1871 C.3     1  UNL1        0.0305
      7 C          62.8354   85.3404    8.2193 C.3     1  UNL1        0.0025
      8 C          61.7587   86.2773    8.6807 C.3     1  UNL1        0.0002
      9 C          61.3042   86.2519   10.1099 C.3     1  UNL1        0.0025
     10 C          61.9263   85.2895   11.0777 C.3     1  UNL1        0.0305
     11 O          64.0838   83.3610   10.3021 O.3     1  UNL1       -0.2256
     12 O          64.4023   82.6083   11.5599 O.3     1  UNL1       -0.2251
     13 C          63.0306   84.7484   14.6283 C.2     1  UNL1        0.2252
     14 O          62.1228   85.1810   15.7412 O.2     1  UNL1       -0.2750
     15 N          64.1863   85.6147   14.2233 N.am    1  UNL1       -0.3004
     16 H          64.7822   85.3307   13.4929 H       1  UNL1        0.1497
     17 C          64.4340   86.9137   14.9312 C.3     1  UNL1        0.1163
     18 C          64.1410   88.2123   14.2400 C.ar    1  UNL1       -0.0021
     19 C          64.4831   89.5112   14.9077 C.ar    1  UNL1       -0.0026
     20 C          64.1901   90.8098   14.2165 C.ar    1  UNL1        0.0002
     21 C          63.5549   90.8095   12.8576 C.ar    1  UNL1        0.0067
     22 C          63.2128   89.5106   12.1900 C.ar    1  UNL1        0.0343
     23 BR         62.5776   89.5103   10.8311 Br      1  UNL1       -0.0490
     24 C          63.5058   88.2120   12.8812 C.ar    1  UNL1        0.0041
@<TRIPOS>BOND
     1     2     3    1
     2     3     1    1
     3     1    13    1
     4    13    14    2
     5    13    15   am
     6    15    17    1
     7    17    18    1
     8    18    19   ar
     9    19    20   ar
    10    20    21   ar
    11    21    22   ar
    12    22    23    1
    13    22    24   ar
    14     3     4    1
    15     4     5    1
    16     5     6    1
    17     6     7    1
    18     7     8    1
    19     8     9    1
    20     9    10    1
    21     5    11    1
    22    11    12    1
    23    12     3    1
    24    24    18   ar
    25    10     5    1
    26    15    16    1
@<TRIPOS>MOLECULE
*****
 24 26 0 0 0
SMALL
GASTEIGER

@<TRIPOS>ATOM
      1 C          64.5504   86.1381   14.8522 C.3     1  UNL1        0.1154
      2 C          63.3860   85.6696   16.4188 C.3     1  UNL1        0.0335
      3 C          63.6085   84.9967   15.0968 C.3     1  UNL1        0.1377
      4 C          64.0280   84.5624   13.7236 C.3     1  UNL1        0.0613
      5 C          63.2988   83.2932   13.3959 C.3     1  UNL1        0.1290
      6 C          62.5027   82.0356   13.2097 C.3     1  UNL1        0.0305
      7 C          62.6226   81.2539   11.9352 C.3     1  UNL1        0.0025
      8 C          63.5385   81.7297   10.8468 C.3     1  UNL1        0.0002
      9 C          64.3346   82.9873   11.0330 C.3     1  UNL1        0.0025
     10 C          64.2147   83.7690   12.3075 C.3     1  UNL1        0.0305
     11 O          62.4286   82.9431   14.5665 O.3     1  UNL1       -0.2256
     12 O          62.6200   83.9959   15.6177 O.3     1  UNL1       -0.2251
     13 C          64.0423   87.4134   14.2476 C.2     1  UNL1        0.2252
     14 O          63.4444   87.4052   12.8720 O.2     1  UNL1       -0.2750
     15 N          64.1322   88.6970   15.0187 N.am    1  UNL1       -0.3004
     16 H          64.5247   88.7024   15.9216 H       1  UNL1        0.1497
     17 C          63.6241   89.9722   14.4141 C.3     1  UNL1        0.1163
     18 C          64.5860   91.0615   14.0426 C.ar    1  UNL1       -0.0021
     19 C          64.5516   91.6551   12.6654 C.ar    1  UNL1       -0.0026
     20 C          65.5136   92.7444   12.2939 C.ar    1  UNL1        0.0002
     21 C          66.5100   93.2401   13.2996 C.ar    1  UNL1        0.0067
     22 C          66.5444   92.6466   14.6766 C.ar    1  UNL1        0.0343
     23 BR         67.5409   93.1424   15.6823 Br      1  UNL1       -0.0490
     24 C          65.5825   91.5573   15.0482 C.ar    1  UNL1        0.0041
@<TRIPOS>BOND
     1     2     3    1
     2     3     1    1
     3     1    13    1
     4    13    14    2
     5    13    15   am
     6    15    17    1
     7    17    18    1
     8    18    19   ar
     9    19    20   ar
    10    20    21   ar
    11    21    22   ar
    12    22    23    1
    13    22    24   ar
    14     3     4    1
    15     4     5    1
    16     5     6    1
    17     6     7    1
    18     7     8    1
    19     8     9    1
    20     9    10    1
    21     5    11    1
    22    11    12    1
    23    12     3    1
    24    24    18   ar
    25    10     5    1
    26    15    16    1
@<TRIPOS>MOLECULE
*****
 24 26 0 0 0
SMALL
GASTEIGER

@<TRIPOS>ATOM
      1 C          64.6613   86.3014   14.9451 C.3     1  UNL1        0.1154
      2 C          63.4685   86.0491   16.5398 C.3     1  UNL1        0.0335
      3 C          63.6440   85.2518   15.2815 C.3     1  UNL1        0.1377
      4 C          64.0322   84.6739   13.9529 C.3     1  UNL1        0.0613
      5 C          63.2181   83.4336   13.7310 C.3     1  UNL1        0.1290
      6 C          62.3382   82.2216   13.6490 C.3     1  UNL1        0.0305
      7 C          62.4039   81.3271   12.4467 C.3     1  UNL1        0.0025
      8 C          63.3496   81.6446   11.3265 C.3     1  UNL1        0.0002
      9 C          64.2295   82.8565   11.4086 C.3     1  UNL1        0.0025
     10 C          64.1638   83.7511   12.6108 C.3     1  UNL1        0.0305
     11 O          62.3267   83.2450   14.9226 O.3     1  UNL1       -0.2256
     12 O          62.5899   84.3687   15.8809 O.3     1  UNL1       -0.2251
     13 C          64.2316   87.5782   14.2853 C.2     1  UNL1        0.2252
     14 O          64.5090   88.8950   14.9477 O.2     1  UNL1       -0.2750
     15 N          63.5244   87.5379   12.9630 N.am    1  UNL1       -0.3004
     16 H          63.3423   86.6736   12.5282 H       1  UNL1        0.1497
     17 C          63.0947   88.8146   12.3032 C.3     1  UNL1        0.1163
     18 C          62.1253   88.7782   11.1591 C.ar    1  UNL1       -0.0021
     19 C          61.2968   89.9871   10.8393 C.ar    1  UNL1       -0.0026
     20 C          60.3274   89.9507    9.6953 C.ar    1  UNL1        0.0002
     21 C          60.1864   88.7054    8.8711 C.ar    1  UNL1        0.0067
     22 C          61.0147   87.4966    9.1908 C.ar    1  UNL1        0.0343
     23 BR         60.8737   86.2513    8.3666 Br      1  UNL1       -0.0490
     24 C          61.9843   87.5329   10.3349 C.ar    1  UNL1        0.0041
@<TRIPOS>BOND
     1     2     3    1
     2     3     1    1
     3     1    13    1
     4    13    14    2
     5    13    15   am
     6    15    17    1
     7    17    18    1
     8    18    19   ar
     9    19    20   ar
    10    20    21   ar
    11    21    22   ar
    12    22    23    1
    13    22    24   ar
    14     3     4    1
    15     4     5    1
    16     5     6    1
    17     6     7    1
    18     7     8    1
    19     8     9    1
    20     9    10    1
    21     5    11    1
    22    11    12    1
    23    12     3    1
    24    24    18   ar
    25    10     5    1
    26    15    16    1
@<TRIPOS>MOLECULE
*****
 24 26 0 0 0
SMALL
GASTEIGER

@<TRIPOS>ATOM
      1 C          60.0936   87.5648   10.1238 C.3     1  UNL1        0.1154
      2 C          60.1895   87.4244    8.1237 C.3     1  UNL1        0.0335
      3 C          60.9231   86.7053    9.2167 C.3     1  UNL1        0.1377
      4 C          61.4833   86.1658   10.4993 C.3     1  UNL1        0.0613
      5 C          62.5058   85.1232   10.1564 C.3     1  UNL1        0.1290
      6 C          63.4958   84.1102    9.6626 C.3     1  UNL1        0.0305
      7 C          64.3045   83.3126   10.6423 C.3     1  UNL1        0.0025
      8 C          64.1232   83.5280   12.1156 C.3     1  UNL1        0.0002
      9 C          63.1333   84.5409   12.6093 C.3     1  UNL1        0.0025
     10 C          62.3246   85.3385   11.6297 C.3     1  UNL1        0.0305
     11 O          62.5775   85.0183    8.6617 O.3     1  UNL1       -0.2256
     12 O          61.5994   85.9961    8.0809 O.3     1  UNL1       -0.2251
     13 C          60.7045   88.7641   10.7861 C.2     1  UNL1        0.2252
     14 O          60.0711   89.3462   12.0148 O.2     1  UNL1       -0.2750
     15 N          61.9487   89.3813   10.2195 N.am    1  UNL1       -0.3004
     16 H          62.3644   88.9992    9.4129 H       1  UNL1        0.1497
     17 C          62.5595   90.5806   10.8817 C.3     1  UNL1        0.1163
     18 C          63.4087   90.4099   12.1063 C.ar    1  UNL1       -0.0021
     19 C          64.2260   91.5588   12.6184 C.ar    1  UNL1       -0.0026
     20 C          65.0752   91.3881   13.8430 C.ar    1  UNL1        0.0002
     21 C          65.1070   90.0685   14.5556 C.ar    1  UNL1        0.0067
     22 C          64.2898   88.9198   14.0436 C.ar    1  UNL1        0.0343
     23 BR         64.3216   87.6002   14.7562 Br      1  UNL1       -0.0490
     24 C          63.4405   89.0904   12.8189 C.ar    1  UNL1        0.0041
@<TRIPOS>BOND
     1     2     3    1
     2     3     1    1
     3     1    13    1
     4    13    14    2
     5    13    15   am
     6    15    17    1
     7    17    18    1
     8    18    19   ar
     9    19    20   ar
    10    20    21   ar
    11    21    22   ar
    12    22    23    1
    13    22    24   ar
    14     3     4    1
    15     4     5    1
    16     5     6    1
    17     6     7    1
    18     7     8    1
    19     8     9    1
    20     9    10    1
    21     5    11    1
    22    11    12    1
    23    12     3    1
    24    24    18   ar
    25    10     5    1
    26    15    16    1
@<TRIPOS>MOLECULE
*****
 24 26 0 0 0
SMALL
GASTEIGER

@<TRIPOS>ATOM
      1 C          64.5545   84.5517   13.9213 C.3     1  UNL1        0.1154
      2 C          63.6497   83.5376   15.3986 C.3     1  UNL1        0.0335
      3 C          63.8558   85.0054   15.1685 C.3     1  UNL1        0.1377
      4 C          64.2079   86.3784   14.6776 C.3     1  UNL1        0.0613
      5 C          63.6837   87.3740   15.6697 C.3     1  UNL1        0.1290
      6 C          63.1058   88.2470   16.7439 C.3     1  UNL1        0.0305
      7 C          63.2350   89.7383   16.6486 C.3     1  UNL1        0.0025
      8 C          63.9421   90.3567   15.4792 C.3     1  UNL1        0.0002
      9 C          64.5200   89.4838   14.4050 C.3     1  UNL1        0.0025
     10 C          64.3907   87.9924   14.5002 C.3     1  UNL1        0.0305
     11 O          63.0075   86.6163   16.7736 O.3     1  UNL1       -0.2256
     12 O          63.1139   85.1524   16.4639 O.3     1  UNL1       -0.2251
     13 C          63.7978   84.4581   12.6294 C.2     1  UNL1        0.2252
     14 O          64.1226   83.3722   11.6470 O.2     1  UNL1       -0.2750
     15 N          62.7164   85.4506   12.3202 N.am    1  UNL1       -0.3004
     16 H          62.5032   86.1633   12.9650 H       1  UNL1        0.1497
     17 C          61.9597   85.3570   11.0284 C.3     1  UNL1        0.1163
     18 C          61.5007   86.6059   10.3359 C.ar    1  UNL1       -0.0021
     19 C          60.4599   86.5269    9.2587 C.ar    1  UNL1       -0.0026
     20 C          60.0009   87.7758    8.5662 C.ar    1  UNL1        0.0002
     21 C          60.5827   89.1037    8.9510 C.ar    1  UNL1        0.0067
     22 C          61.6234   89.1828   10.0282 C.ar    1  UNL1        0.0343
     23 BR         62.2052   90.5107   10.4130 Br      1  UNL1       -0.0490
     24 C          62.0825   87.9338   10.7208 C.ar    1  UNL1        0.0041
@<TRIPOS>BOND
     1     2     3    1
     2     3     1    1
     3     1    13    1
     4    13    14    2
     5    13    15   am
     6    15    17    1
     7    17    18    1
     8    18    19   ar
     9    19    20   ar
    10    20    21   ar
    11    21    22   ar
    12    22    23    1
    13    22    24   ar
    14     3     4    1
    15     4     5    1
    16     5     6    1
    17     6     7    1
    18     7     8    1
    19     8     9    1
    20     9    10    1
    21     5    11    1
    22    11    12    1
    23    12     3    1
    24    24    18   ar
    25    10     5    1
    26    15    16    1
@<TRIPOS>MOLECULE
*****
 24 26 0 0 0
SMALL
GASTEIGER

@<TRIPOS>ATOM
      1 C          60.1799   87.7094   10.4580 C.3     1  UNL1        0.1154
      2 C          60.1800   87.7044    8.4506 C.3     1  UNL1        0.0335
      3 C          60.9359   86.8877    9.4565 C.3     1  UNL1        0.1377
      4 C          61.5337   86.2428   10.6717 C.3     1  UNL1        0.0613
      5 C          62.5013   85.1932   10.2109 C.3     1  UNL1        0.1290
      6 C          63.4307   84.1847    9.6034 C.3     1  UNL1        0.0305
      7 C          64.2536   83.2951   10.4874 C.3     1  UNL1        0.0025
      8 C          64.1471   83.4141   11.9789 C.3     1  UNL1        0.0002
      9 C          63.2178   84.4227   12.5864 C.3     1  UNL1        0.0025
     10 C          62.3949   85.3122   11.7024 C.3     1  UNL1        0.0305
     11 O          62.5015   85.1894    8.7109 O.3     1  UNL1       -0.2256
     12 O          61.5340   86.2367    8.2446 O.3     1  UNL1       -0.2251
     13 C          60.7457   89.0127   10.9391 C.2     1  UNL1        0.2252
     14 O          59.9328   89.8974   11.8370 O.2     1  UNL1       -0.2750
     15 N          62.1246   89.4312   10.5220 N.am    1  UNL1       -0.3004
     16 H          62.6581   88.8505    9.9327 H       1  UNL1        0.1497
     17 C          62.6903   90.7345   11.0030 C.3     1  UNL1        0.1163
     18 C          63.6358   90.7575   12.1673 C.ar    1  UNL1       -0.0021
     19 C          63.6040   89.6526   13.1813 C.ar    1  UNL1       -0.0026
     20 C          64.5495   89.6756   14.3455 C.ar    1  UNL1        0.0002
     21 C          65.5268   90.8036   14.4958 C.ar    1  UNL1        0.0067
     22 C          65.5586   91.9084   13.4819 C.ar    1  UNL1        0.0343
     23 BR         66.5359   93.0364   13.6322 Br      1  UNL1       -0.0490
     24 C          64.6131   91.8855   12.3176 C.ar    1  UNL1        0.0041
@<TRIPOS>BOND
     1     2     3    1
     2     3     1    1
     3     1    13    1
     4    13    14    2
     5    13    15   am
     6    15    17    1
     7    17    18    1
     8    18    19   ar
     9    19    20   ar
    10    20    21   ar
    11    21    22   ar
    12    22    23    1
    13    22    24   ar
    14     3     4    1
    15     4     5    1
    16     5     6    1
    17     6     7    1
    18     7     8    1
    19     8     9    1
    20     9    10    1
    21     5    11    1
    22    11    12    1
    23    12     3    1
    24    24    18   ar
    25    10     5    1
    26    15    16    1
@<TRIPOS>MOLECULE
*****
 24 26 0 0 0
SMALL
GASTEIGER

@<TRIPOS>ATOM
      1 C          64.8411   88.9931   14.5293 C.3     1  UNL1        0.1154
      2 C          64.7390   90.9735   14.8415 C.3     1  UNL1        0.0335
      3 C          64.1059   90.0858   13.8114 C.3     1  UNL1        0.1377
      4 C          63.6264   88.9696   12.9314 C.3     1  UNL1        0.0613
      5 C          62.7271   89.5581   11.8849 C.3     1  UNL1        0.1290
      6 C          61.8550   90.2859   10.9053 C.3     1  UNL1        0.0305
      7 C          61.1550   89.5277    9.8168 C.3     1  UNL1        0.0025
      8 C          61.3271   88.0416    9.7078 C.3     1  UNL1        0.0002
      9 C          62.1992   87.3137   10.6873 C.3     1  UNL1        0.0025
     10 C          62.8992   88.0720   11.7759 C.3     1  UNL1        0.0305
     11 O          62.6508   91.0379   12.1181 O.3     1  UNL1       -0.2256
     12 O          63.5029   91.3640   13.3088 O.3     1  UNL1       -0.2251
     13 C          64.0858   87.8271   15.0951 C.2     1  UNL1        0.2252
     14 O          63.0286   88.0517   16.1351 O.2     1  UNL1       -0.2750
     15 N          64.3878   86.4364   14.6206 N.am    1  UNL1       -0.3004
     16 H          65.0817   86.2890   13.9380 H       1  UNL1        0.1497
     17 C          63.6325   85.2705   15.1864 C.3     1  UNL1        0.1163
     18 C          63.2758   84.1096   14.3060 C.ar    1  UNL1       -0.0021
     19 C          62.3724   83.0281   14.8202 C.ar    1  UNL1       -0.0026
     20 C          62.0157   81.8672   13.9399 C.ar    1  UNL1        0.0002
     21 C          62.5624   81.7877   12.5453 C.ar    1  UNL1        0.0067
     22 C          63.4658   82.8691   12.0311 C.ar    1  UNL1        0.0343
     23 BR         64.0125   82.7896   10.6366 Br      1  UNL1       -0.0490
     24 C          63.8225   84.0301   12.9115 C.ar    1  UNL1        0.0041
@<TRIPOS>BOND
     1     2     3    1
     2     3     1    1
     3     1    13    1
     4    13    14    2
     5    13    15   am
     6    15    17    1
     7    17    18    1
     8    18    19   ar
     9    19    20   ar
    10    20    21   ar
    11    21    22   ar
    12    22    23    1
    13    22    24   ar
    14     3     4    1
    15     4     5    1
    16     5     6    1
    17     6     7    1
    18     7     8    1
    19     8     9    1
    20     9    10    1
    21     5    11    1
    22    11    12    1
    23    12     3    1
    24    24    18   ar
    25    10     5    1
    26    15    16    1
@<TRIPOS>MOLECULE
*****
 24 26 0 0 0
SMALL
GASTEIGER

@<TRIPOS>ATOM
      1 C          62.4441   90.6391   11.8781 C.3     1  UNL1        0.1154
      2 C          63.1338   91.0498   10.0382 C.3     1  UNL1        0.0335
      3 C          63.7275   91.2514   11.4008 C.3     1  UNL1        0.1377
      4 C          64.0530   91.3250   12.8632 C.3     1  UNL1        0.0613
      5 C          65.4135   91.9407   13.0049 C.3     1  UNL1        0.1290
      6 C          66.7769   92.5658   12.9899 C.3     1  UNL1        0.0305
      7 C          67.4958   92.8285   14.2799 C.3     1  UNL1        0.0025
      8 C          66.8512   92.4660   15.5850 C.3     1  UNL1        0.0002
      9 C          65.4878   91.8409   15.6000 C.3     1  UNL1        0.0025
     10 C          64.7689   91.5783   14.3100 C.3     1  UNL1        0.0305
     11 O          65.9289   92.2476   11.6301 O.3     1  UNL1       -0.2256
     12 O          64.8869   91.8216   10.6386 O.3     1  UNL1       -0.2251
     13 C          62.3025   89.1470   11.9400 C.2     1  UNL1        0.2252
     14 O          63.3729   88.3182   12.5859 O.2     1  UNL1       -0.2750
     15 N          61.0904   88.4838   11.3560 N.am    1  UNL1       -0.3004
     16 H          60.3878   89.0278   10.9321 H       1  UNL1        0.1497
     17 C          60.9488   86.9918   11.4179 C.3     1  UNL1        0.1163
     18 C          61.8210   86.1196   10.5645 C.ar    1  UNL1       -0.0021
     19 C          61.9480   86.3943    9.0953 C.ar    1  UNL1       -0.0026
     20 C          62.8202   85.5221    8.2419 C.ar    1  UNL1        0.0002
     21 C          63.5656   84.3752    8.8576 C.ar    1  UNL1        0.0067
     22 C          63.4387   84.1006   10.3267 C.ar    1  UNL1        0.0343
     23 BR         64.1840   82.9537   10.9425 Br      1  UNL1       -0.0490
     24 C          62.5664   84.9728   11.1802 C.ar    1  UNL1        0.0041
@<TRIPOS>BOND
     1     2     3    1
     2     3     1    1
     3     1    13    1
     4    13    14    2
     5    13    15   am
     6    15    17    1
     7    17    18    1
     8    18    19   ar
     9    19    20   ar
    10    20    21   ar
    11    21    22   ar
    12    22    23    1
    13    22    24   ar
    14     3     4    1
    15     4     5    1
    16     5     6    1
    17     6     7    1
    18     7     8    1
    19     8     9    1
    20     9    10    1
    21     5    11    1
    22    11    12    1
    23    12     3    1
    24    24    18   ar
    25    10     5    1
    26    15    16    1
@<TRIPOS>MOLECULE
*****
 24 26 0 0 0
SMALL
GASTEIGER

@<TRIPOS>ATOM
      1 C          63.4927   90.5596   14.0870 C.3     1  UNL1        0.1154
      2 C          64.4009   88.8635   14.6598 C.3     1  UNL1        0.0335
      3 C          63.5030   89.1792   13.5004 C.3     1  UNL1        0.1377
      4 C          62.6030   89.7834   12.4637 C.3     1  UNL1        0.0613
      5 C          62.2447   88.7103   11.4786 C.3     1  UNL1        0.1290
      6 C          61.9752   87.5404   10.5794 C.3     1  UNL1        0.0305
      7 C          61.0932   87.7058    9.3775 C.3     1  UNL1        0.0025
      8 C          60.4807   89.0411    9.0747 C.3     1  UNL1        0.0002
      9 C          60.7502   90.2111    9.9739 C.3     1  UNL1        0.0025
     10 C          61.6322   90.0457   11.1758 C.3     1  UNL1        0.0305
     11 O          62.9234   87.4429   11.9065 O.3     1  UNL1       -0.2256
     12 O          63.7011   87.7326   13.1561 O.3     1  UNL1       -0.2251
     13 C          64.7082   91.4314   13.9746 C.2     1  UNL1        0.2252
     14 O          65.2946   92.0626   15.2023 O.2     1  UNL1       -0.2750
     15 N          65.3372   91.6719   12.6341 N.am    1  UNL1       -0.3004
     16 H          64.9522   91.2576   11.8283 H       1  UNL1        0.1497
     17 C          66.5526   92.5437   12.5217 C.3     1  UNL1        0.1163
     18 C          67.0255   93.0009   11.1736 C.ar    1  UNL1       -0.0021
     19 C          67.9175   92.1178   10.3525 C.ar    1  UNL1       -0.0026
     20 C          68.3904   92.5750    9.0044 C.ar    1  UNL1        0.0002
     21 C          67.9712   93.9153    8.4774 C.ar    1  UNL1        0.0067
     22 C          67.0792   94.7985    9.2985 C.ar    1  UNL1        0.0343
     23 BR         66.6601   96.1388    8.7716 Br      1  UNL1       -0.0490
     24 C          66.6063   94.3413   10.6467 C.ar    1  UNL1        0.0041
@<TRIPOS>BOND
     1     2     3    1
     2     3     1    1
     3     1    13    1
     4    13    14    2
     5    13    15   am
     6    15    17    1
     7    17    18    1
     8    18    19   ar
     9    19    20   ar
    10    20    21   ar
    11    21    22   ar
    12    22    23    1
    13    22    24   ar
    14     3     4    1
    15     4     5    1
    16     5     6    1
    17     6     7    1
    18     7     8    1
    19     8     9    1
    20     9    10    1
    21     5    11    1
    22    11    12    1
    23    12     3    1
    24    24    18   ar
    25    10     5    1
    26    15    16    1
