@<TRIPOS>MOLECULE
*****
 39 44 0 0 0
SMALL
GASTEIGER

@<TRIPOS>ATOM
      1 C          61.9663   88.9728   10.0854 C.ar    1  UNL1       -0.0201
      2 C          62.3977   90.3989    9.9116 C.ar    1  UNL1       -0.0027
      3 C          63.2393   91.0612   10.9618 C.ar    1  UNL1        0.0173
      4 C          63.6496   90.2973   12.1859 C.ar    1  UNL1        0.0667
      5 C          63.2183   88.8713   12.3596 C.ar    1  UNL1        0.0173
      6 C          62.3766   88.2090   11.3094 C.ar    1  UNL1       -0.0027
      7 N          64.4913   90.9596   13.2362 N.ar    1  UNL1       -0.2754
      8 C          64.7353   90.4455   14.6240 C.ar    1  UNL1        0.1503
      9 N          65.6315   91.4205   15.3285 N.ar    1  UNL1       -0.2248
     10 C          65.9413   92.5371   14.3761 C.ar    1  UNL1        0.1173
     11 C          66.7741   93.7764   14.5192 C.ar    1  UNL1        0.0238
     12 C          66.9022   94.7309   13.3692 C.ar    1  UNL1        0.0223
     13 C          66.1975   94.4460   12.0761 C.ar    1  UNL1        0.1006
     14 N          65.3647   93.2067   11.9329 N.ar    1  UNL1       -0.2248
     15 C          65.2366   92.2522   13.0829 C.ar    1  UNL1        0.1666
     16 C          64.1806   89.1789   15.2053 C.ar    1  UNL1        0.0537
     17 C          64.6892   87.8500   14.7306 C.ar    1  UNL1        0.0062
     18 C          64.1345   86.5834   15.3119 C.ar    1  UNL1        0.0208
     19 C          63.0711   86.6456   16.3680 C.ar    1  UNL1        0.0989
     20 N          62.5624   87.9745   16.8427 N.ar    1  UNL1       -0.2422
     21 C          63.1172   89.2411   16.2614 C.ar    1  UNL1        0.1018
     22 C          61.1247   88.3105    9.0351 C.3     1  UNL1        0.0516
     23 CA         60.6674   86.8944    9.2234 C.3     1  UNL1        0.1102
     24 O          58.2631   86.7313    8.2523 O.co2   1  UNL1       -0.5475
     25 C          59.6953   86.2854    8.2568 C.2     1  UNL1        0.0684
     26 OXT        60.1554   85.2306    7.2948 O.co2   1  UNL1       -0.5475
     27 N          61.1822   86.0873   10.3782 N.pl3   1  UNL1       -0.3320
     28 H          60.7983   86.2122   11.2760 H       1  UNL1        0.1468
     29 C          62.2821   85.0899   10.1649 C.2     1  UNL1        0.0372
     30 C          63.0617   84.6083    8.9773 C.2     1  UNL1        0.0788
     31 BR         63.0643   84.9247    7.5110 Br      1  UNL1       -0.0451
     32 C          63.8375   83.6793    9.8632 C.2     1  UNL1        0.1842
     33 O          64.9373   82.6819    9.6500 O.2     1  UNL1       -0.2904
     34 C          63.0579   84.1608   11.0509 C.3     1  UNL1        0.0874
     35 C          64.0091   83.1388   11.5992 C.3     1  UNL1        0.0126
     36 C          64.0064   82.8224   13.0655 C.3     1  UNL1        0.0008
     37 C          63.0526   83.5279   13.9834 C.3     1  UNL1        0.0000
     38 C          62.1015   84.5500   13.4349 C.3     1  UNL1        0.0008
     39 C          62.1041   84.8664   11.9687 C.3     1  UNL1        0.0126
@<TRIPOS>UNITY_ATOM_ATTR
24 1
charge -1
@<TRIPOS>BOND
     1    24    25   ar
     2    25    26   ar
     3    25    23    1
     4    23    22    1
     5    22     1    1
     6     1     2   ar
     7     2     3   ar
     8     3     4   ar
     9     4     7    1
    10     7     8   ar
    11     8    16    1
    12    16    17   ar
    13    17    18   ar
    14    18    19   ar
    15    19    20   ar
    16    20    21   ar
    17     8     9   ar
    18     9    10   ar
    19    10    11   ar
    20    11    12   ar
    21    12    13   ar
    22    13    14   ar
    23    14    15   ar
    24     4     5   ar
    25     5     6   ar
    26    23    27    1
    27    27    29    1
    28    29    30    2
    29    30    31    1
    30    30    32    1
    31    32    33    2
    32    32    34    1
    33    34    35    1
    34    35    36    1
    35    36    37    1
    36    37    38    1
    37    38    39    1
    38     6     1   ar
    39    34    29    1
    40    15     7   ar
    41    39    34    1
    42    21    16   ar
    43    15    10   ar
    44    27    28    1
@<TRIPOS>MOLECULE
*****
 39 44 0 0 0
SMALL
GASTEIGER

@<TRIPOS>ATOM
      1 C          64.1954   89.0390   13.8098 C.ar    1  UNL1       -0.0201
      2 C          63.6022   89.8561   12.7006 C.ar    1  UNL1       -0.0027
      3 C          62.8544   89.1812   11.5892 C.ar    1  UNL1        0.0173
      4 C          62.6997   87.6891   11.5870 C.ar    1  UNL1        0.0667
      5 C          63.2929   86.8721   12.6962 C.ar    1  UNL1        0.0173
      6 C          64.0408   87.5470   13.8076 C.ar    1  UNL1       -0.0027
      7 N          61.9518   87.0143   10.4756 N.ar    1  UNL1       -0.2754
      8 C          61.9930   85.5515   10.1461 C.ar    1  UNL1        0.1503
      9 N          61.0980   85.3170    8.9654 N.ar    1  UNL1       -0.2248
     10 C          60.5038   86.6348    8.5651 C.ar    1  UNL1        0.1173
     11 C          59.5504   87.0151    7.4714 C.ar    1  UNL1        0.0238
     12 C          59.1246   88.4444    7.3110 C.ar    1  UNL1        0.0223
     13 C          59.6522   89.4934    8.2443 C.ar    1  UNL1        0.1006
     14 N          60.6057   89.1131    9.3381 N.ar    1  UNL1       -0.2248
     15 C          61.0314   87.6838    9.4985 C.ar    1  UNL1        0.1666
     16 C          62.7893   84.5067   10.8702 C.ar    1  UNL1        0.0537
     17 C          62.4359   84.1381   12.2806 C.ar    1  UNL1        0.0062
     18 C          63.2322   83.0933   13.0047 C.ar    1  UNL1        0.0208
     19 C          64.3819   82.4171   12.3185 C.ar    1  UNL1        0.0989
     20 N          64.7352   82.7858   10.9081 N.ar    1  UNL1       -0.2422
     21 C          63.9389   83.8305   10.1840 C.ar    1  UNL1        0.1018
     22 C          64.9433   89.7138   14.9212 C.3     1  UNL1        0.0516
     23 CA         64.5913   91.1167   15.3185 C.3     1  UNL1        0.1102
     24 O          63.3646   92.7431   16.9310 O.co2   1  UNL1       -0.5475
     25 C          63.5716   91.3589   16.3916 C.2     1  UNL1        0.0684
     26 OXT        62.7589   90.2166   16.9253 O.co2   1  UNL1       -0.5475
     27 N          65.2590   92.2775   14.6426 N.pl3   1  UNL1       -0.3320
     28 H          64.7494   93.0995   14.4584 H       1  UNL1        0.1468
     29 C          66.7031   92.1859   14.2474 C.2     1  UNL1        0.0372
     30 C          68.0003   92.0611   14.9903 C.2     1  UNL1        0.0788
     31 BR         68.3906   91.9763   16.4361 Br      1  UNL1       -0.0451
     32 C          68.7454   92.0563   13.6885 C.2     1  UNL1        0.1842
     33 O          70.1894   91.9646   13.2932 O.2     1  UNL1       -0.2904
     34 C          67.4482   92.1810   12.9456 C.3     1  UNL1        0.0874
     35 C          68.5037   92.1441   11.8804 C.3     1  UNL1        0.0126
     36 C          68.1134   92.2289   10.4346 C.3     1  UNL1        0.0008
     37 C          66.6676   92.3507   10.0538 C.3     1  UNL1        0.0000
     38 C          65.6121   92.3876   11.1190 C.3     1  UNL1        0.0008
     39 C          66.0025   92.3028   12.5649 C.3     1  UNL1        0.0126
@<TRIPOS>UNITY_ATOM_ATTR
24 1
charge -1
@<TRIPOS>BOND
     1    24    25   ar
     2    25    26   ar
     3    25    23    1
     4    23    22    1
     5    22     1    1
     6     1     2   ar
     7     2     3   ar
     8     3     4   ar
     9     4     7    1
    10     7     8   ar
    11     8    16    1
    12    16    17   ar
    13    17    18   ar
    14    18    19   ar
    15    19    20   ar
    16    20    21   ar
    17     8     9   ar
    18     9    10   ar
    19    10    11   ar
    20    11    12   ar
    21    12    13   ar
    22    13    14   ar
    23    14    15   ar
    24     4     5   ar
    25     5     6   ar
    26    23    27    1
    27    27    29    1
    28    29    30    2
    29    30    31    1
    30    30    32    1
    31    32    33    2
    32    32    34    1
    33    34    35    1
    34    35    36    1
    35    36    37    1
    36    37    38    1
    37    38    39    1
    38     6     1   ar
    39    34    29    1
    40    15     7   ar
    41    39    34    1
    42    21    16   ar
    43    15    10   ar
    44    27    28    1
@<TRIPOS>MOLECULE
*****
 39 44 0 0 0
SMALL
GASTEIGER

@<TRIPOS>ATOM
      1 C          62.5147   87.8004   10.9612 C.ar    1  UNL1       -0.0201
      2 C          63.2207   87.6180   12.2721 C.ar    1  UNL1       -0.0027
      3 C          63.2710   86.2636   12.9147 C.ar    1  UNL1        0.0173
      4 C          62.6153   85.0915   12.2465 C.ar    1  UNL1        0.0667
      5 C          61.9093   85.2740   10.9357 C.ar    1  UNL1        0.0173
      6 C          61.8590   86.6284   10.2931 C.ar    1  UNL1       -0.0027
      7 N          62.6656   83.7371   12.8891 N.ar    1  UNL1       -0.2754
      8 C          62.6476   83.4593   14.3631 C.ar    1  UNL1        0.1503
      9 N          62.7137   81.9732   14.5555 N.ar    1  UNL1       -0.2248
     10 C          62.7725   81.3325   13.2005 C.ar    1  UNL1        0.1173
     11 C          62.8493   79.8972   12.7714 C.ar    1  UNL1        0.0238
     12 C          62.8964   79.5522   11.3124 C.ar    1  UNL1        0.0223
     13 C          62.8667   80.6423   10.2825 C.ar    1  UNL1        0.1006
     14 N          62.7899   82.0775   10.7116 N.ar    1  UNL1       -0.2248
     15 C          62.7428   82.4226   12.1706 C.ar    1  UNL1        0.1666
     16 C          62.5761   84.4872   15.4532 C.ar    1  UNL1        0.0537
     17 C          63.8308   84.9449   16.1359 C.ar    1  UNL1        0.0062
     18 C          63.7593   85.9728   17.2260 C.ar    1  UNL1        0.0208
     19 C          62.4331   86.5430   17.6334 C.ar    1  UNL1        0.0989
     20 N          61.1784   86.0853   16.9506 N.ar    1  UNL1       -0.2422
     21 C          61.2499   85.0574   15.8605 C.ar    1  UNL1        0.1018
     22 C          62.4643   89.1549   10.3186 C.3     1  UNL1        0.0516
     23 CA         61.8973   90.3217   11.0716 C.3     1  UNL1        0.1102
     24 O          59.4154   91.0277   10.7688 O.co2   1  UNL1       -0.5475
     25 C          60.4720   90.2920   11.5382 C.2     1  UNL1        0.0684
     26 OXT        60.1035   89.5264   12.7744 O.co2   1  UNL1       -0.5475
     27 N          62.7555   91.5181   11.3579 N.pl3   1  UNL1       -0.3320
     28 H          62.5860   92.3684   10.8915 H       1  UNL1        0.1468
     29 C          63.8719   91.4191   12.3547 C.2     1  UNL1        0.0372
     30 C          64.0147   90.8466   13.7339 C.2     1  UNL1        0.0788
     31 BR         63.1003   90.1362   14.6874 Br      1  UNL1       -0.0451
     32 C          65.4507   91.2789   13.7646 C.2     1  UNL1        0.1842
     33 O          66.5671   91.1798   14.7615 O.2     1  UNL1       -0.2904
     34 C          65.3079   91.8513   12.3854 C.3     1  UNL1        0.0874
     35 C          66.7320   92.1207   12.7721 C.3     1  UNL1        0.0126
     36 C          67.6464   92.8311   11.8186 C.3     1  UNL1        0.0008
     37 C          67.1368   93.2722   10.4785 C.3     1  UNL1        0.0000
     38 C          65.7128   93.0028   10.0919 C.3     1  UNL1        0.0008
     39 C          64.7983   92.2924   11.0454 C.3     1  UNL1        0.0126
@<TRIPOS>UNITY_ATOM_ATTR
24 1
charge -1
@<TRIPOS>BOND
     1    24    25   ar
     2    25    26   ar
     3    25    23    1
     4    23    22    1
     5    22     1    1
     6     1     2   ar
     7     2     3   ar
     8     3     4   ar
     9     4     7    1
    10     7     8   ar
    11     8    16    1
    12    16    17   ar
    13    17    18   ar
    14    18    19   ar
    15    19    20   ar
    16    20    21   ar
    17     8     9   ar
    18     9    10   ar
    19    10    11   ar
    20    11    12   ar
    21    12    13   ar
    22    13    14   ar
    23    14    15   ar
    24     4     5   ar
    25     5     6   ar
    26    23    27    1
    27    27    29    1
    28    29    30    2
    29    30    31    1
    30    30    32    1
    31    32    33    2
    32    32    34    1
    33    34    35    1
    34    35    36    1
    35    36    37    1
    36    37    38    1
    37    38    39    1
    38     6     1   ar
    39    34    29    1
    40    15     7   ar
    41    39    34    1
    42    21    16   ar
    43    15    10   ar
    44    27    28    1
@<TRIPOS>MOLECULE
*****
 39 44 0 0 0
SMALL
GASTEIGER

@<TRIPOS>ATOM
      1 C          62.4081   89.4897   10.0917 C.ar    1  UNL1       -0.0201
      2 C          62.9591   90.8373    9.7307 C.ar    1  UNL1       -0.0027
      3 C          63.8125   91.5859   10.7112 C.ar    1  UNL1        0.0173
      4 C          64.1149   90.9868   12.0528 C.ar    1  UNL1        0.0667
      5 C          63.5639   89.6393   12.4138 C.ar    1  UNL1        0.0173
      6 C          62.7105   88.8907   11.4333 C.ar    1  UNL1       -0.0027
      7 N          64.9682   91.7354   13.0333 N.ar    1  UNL1       -0.2754
      8 C          66.1598   92.5828   12.6982 C.ar    1  UNL1        0.1503
      9 N          66.7078   93.1391   13.9789 N.ar    1  UNL1       -0.2248
     10 C          65.8550   92.6356   15.1055 C.ar    1  UNL1        0.1173
     11 C          65.9185   92.8551   16.5880 C.ar    1  UNL1        0.0238
     12 C          64.9069   92.2069   17.4861 C.ar    1  UNL1        0.0223
     13 C          63.8318   91.3394   16.9017 C.ar    1  UNL1        0.1006
     14 N          63.7683   91.1200   15.4192 N.ar    1  UNL1       -0.2248
     15 C          64.7799   91.7681   14.5211 C.ar    1  UNL1        0.1666
     16 C          66.7071   92.8303   11.3238 C.ar    1  UNL1        0.0537
     17 C          67.7307   91.8989   10.7452 C.ar    1  UNL1        0.0062
     18 C          68.2781   92.1464    9.3707 C.ar    1  UNL1        0.0208
     19 C          67.8019   93.3253    8.5749 C.ar    1  UNL1        0.0989
     20 N          66.7784   94.2567    9.1535 N.ar    1  UNL1       -0.2422
     21 C          66.2310   94.0092   10.5279 C.ar    1  UNL1        0.1018
     22 C          61.5548   88.7411    9.1112 C.3     1  UNL1        0.0516
     23 CA         61.0137   87.3883    9.4676 C.3     1  UNL1        0.1102
     24 O          58.5190   87.4090    8.7423 O.co2   1  UNL1       -0.5475
     25 C          59.8870   86.7979    8.6725 C.2     1  UNL1        0.0684
     26 OXT        60.1286   85.5964    7.8076 O.co2   1  UNL1       -0.5475
     27 N          61.5992   86.6259   10.6191 N.pl3   1  UNL1       -0.3320
     28 H          61.3993   86.8998   11.5434 H       1  UNL1        0.1468
     29 C          62.4893   85.4462   10.3624 C.2     1  UNL1        0.0372
     30 C          63.0867   84.8143    9.1401 C.2     1  UNL1        0.0788
     31 BR         63.0414   85.1004    7.6683 Br      1  UNL1       -0.0451
     32 C          63.7482   83.7778    9.9992 C.2     1  UNL1        0.1842
     33 O          64.6383   82.5981    9.7424 O.2     1  UNL1       -0.2904
     34 C          63.1508   84.4097   11.2215 C.3     1  UNL1        0.0874
     35 C          63.9444   83.2449   11.7350 C.3     1  UNL1        0.0126
     36 C          63.9897   82.9589   13.2067 C.3     1  UNL1        0.0008
     37 C          63.2415   83.8375   14.1651 C.3     1  UNL1        0.0000
     38 C          62.4480   85.0022   13.6515 C.3     1  UNL1        0.0008
     39 C          62.4026   85.2883   12.1797 C.3     1  UNL1        0.0126
@<TRIPOS>UNITY_ATOM_ATTR
24 1
charge -1
@<TRIPOS>BOND
     1    24    25   ar
     2    25    26   ar
     3    25    23    1
     4    23    22    1
     5    22     1    1
     6     1     2   ar
     7     2     3   ar
     8     3     4   ar
     9     4     7    1
    10     7     8   ar
    11     8    16    1
    12    16    17   ar
    13    17    18   ar
    14    18    19   ar
    15    19    20   ar
    16    20    21   ar
    17     8     9   ar
    18     9    10   ar
    19    10    11   ar
    20    11    12   ar
    21    12    13   ar
    22    13    14   ar
    23    14    15   ar
    24     4     5   ar
    25     5     6   ar
    26    23    27    1
    27    27    29    1
    28    29    30    2
    29    30    31    1
    30    30    32    1
    31    32    33    2
    32    32    34    1
    33    34    35    1
    34    35    36    1
    35    36    37    1
    36    37    38    1
    37    38    39    1
    38     6     1   ar
    39    34    29    1
    40    15     7   ar
    41    39    34    1
    42    21    16   ar
    43    15    10   ar
    44    27    28    1
@<TRIPOS>MOLECULE
*****
 39 44 0 0 0
SMALL
GASTEIGER

@<TRIPOS>ATOM
      1 C          63.5125   86.6817   15.4820 C.ar    1  UNL1       -0.0201
      2 C          64.1862   86.8172   14.1486 C.ar    1  UNL1       -0.0027
      3 C          64.6314   88.1662   13.6669 C.ar    1  UNL1        0.0173
      4 C          64.4029   89.3798   14.5186 C.ar    1  UNL1        0.0667
      5 C          63.7292   89.2442   15.8519 C.ar    1  UNL1        0.0173
      6 C          63.2840   87.8952   16.3336 C.ar    1  UNL1       -0.0027
      7 N          64.8481   90.7288   14.0369 N.ar    1  UNL1       -0.2754
      8 C          64.2865   91.4754   12.8634 C.ar    1  UNL1        0.1503
      9 N          65.0244   92.7760   12.7455 N.ar    1  UNL1       -0.2248
     10 C          66.0420   92.8332   13.8460 C.ar    1  UNL1        0.1173
     11 C          67.0537   93.8739   14.2244 C.ar    1  UNL1        0.0238
     12 C          67.9565   93.6493   15.4011 C.ar    1  UNL1        0.0223
     13 C          67.8475   92.3840   16.1993 C.ar    1  UNL1        0.1006
     14 N          66.8358   91.3433   15.8208 N.ar    1  UNL1       -0.2248
     15 C          65.9330   91.5679   14.6442 C.ar    1  UNL1        0.1666
     16 C          63.1811   91.0042   11.9656 C.ar    1  UNL1        0.0537
     17 C          63.3302   91.1045   10.4764 C.ar    1  UNL1        0.0062
     18 C          62.2248   90.6333    9.5786 C.ar    1  UNL1        0.0208
     19 C          60.9703   90.0619   10.1699 C.ar    1  UNL1        0.0989
     20 N          60.8213   89.9616   11.6591 N.ar    1  UNL1       -0.2422
     21 C          61.9266   90.4328   12.5569 C.ar    1  UNL1        0.1018
     22 C          63.0673   85.3327   15.9637 C.3     1  UNL1        0.0516
     23 CA         62.7756   84.2423   14.9758 C.3     1  UNL1        0.1102
     24 O          64.3362   82.4497   16.0252 O.co2   1  UNL1       -0.5475
     25 C          63.0562   82.8125   15.3324 C.2     1  UNL1        0.0684
     26 OXT        62.0568   81.7457   14.9962 O.co2   1  UNL1       -0.5475
     27 N          62.2032   84.5816   13.6315 N.pl3   1  UNL1       -0.3320
     28 H          61.3724   85.1060   13.5684 H       1  UNL1        0.1468
     29 C          62.8966   84.1219   12.3834 C.2     1  UNL1        0.0372
     30 C          63.8712   83.0308   12.0520 C.2     1  UNL1        0.0788
     31 BR         64.5559   81.9474   12.8314 Br      1  UNL1       -0.0451
     32 C          63.8774   83.4718   10.6184 C.2     1  UNL1        0.1842
     33 O          64.5709   83.0121    9.3702 O.2     1  UNL1       -0.2904
     34 C          62.9029   84.5629   10.9498 C.3     1  UNL1        0.0874
     35 C          63.1611   84.7065    9.4791 C.3     1  UNL1        0.0126
     36 C          62.4765   85.7898    8.6997 C.3     1  UNL1        0.0008
     37 C          61.5335   86.7297    9.3908 C.3     1  UNL1        0.0000
     38 C          61.2753   86.5861   10.8614 C.3     1  UNL1        0.0008
     39 C          61.9600   85.5027   11.6409 C.3     1  UNL1        0.0126
@<TRIPOS>UNITY_ATOM_ATTR
24 1
charge -1
@<TRIPOS>BOND
     1    24    25   ar
     2    25    26   ar
     3    25    23    1
     4    23    22    1
     5    22     1    1
     6     1     2   ar
     7     2     3   ar
     8     3     4   ar
     9     4     7    1
    10     7     8   ar
    11     8    16    1
    12    16    17   ar
    13    17    18   ar
    14    18    19   ar
    15    19    20   ar
    16    20    21   ar
    17     8     9   ar
    18     9    10   ar
    19    10    11   ar
    20    11    12   ar
    21    12    13   ar
    22    13    14   ar
    23    14    15   ar
    24     4     5   ar
    25     5     6   ar
    26    23    27    1
    27    27    29    1
    28    29    30    2
    29    30    31    1
    30    30    32    1
    31    32    33    2
    32    32    34    1
    33    34    35    1
    34    35    36    1
    35    36    37    1
    36    37    38    1
    37    38    39    1
    38     6     1   ar
    39    34    29    1
    40    15     7   ar
    41    39    34    1
    42    21    16   ar
    43    15    10   ar
    44    27    28    1
@<TRIPOS>MOLECULE
*****
 39 44 0 0 0
SMALL
GASTEIGER

@<TRIPOS>ATOM
      1 C          62.4872   90.5574   10.8289 C.ar    1  UNL1       -0.0201
      2 C          63.3268   91.4900   10.0072 C.ar    1  UNL1       -0.0027
      3 C          64.4118   92.2944   10.6598 C.ar    1  UNL1        0.0173
      4 C          64.6571   92.1661   12.1341 C.ar    1  UNL1        0.0667
      5 C          63.8175   91.2335   12.9557 C.ar    1  UNL1        0.0173
      6 C          62.7325   90.4291   12.3031 C.ar    1  UNL1       -0.0027
      7 N          65.7421   92.9705   12.7867 N.ar    1  UNL1       -0.2754
      8 C          66.4053   94.1867   12.2114 C.ar    1  UNL1        0.1503
      9 N          67.4274   94.6677   13.1983 N.ar    1  UNL1       -0.2248
     10 C          67.3959   93.7488   14.3834 C.ar    1  UNL1        0.1173
     11 C          68.1811   93.7316   15.6613 C.ar    1  UNL1        0.0238
     12 C          67.9247   92.6655   16.6848 C.ar    1  UNL1        0.0223
     13 C          66.8831   91.6165   16.4304 C.ar    1  UNL1        0.1006
     14 N          66.0979   91.6337   15.1525 N.ar    1  UNL1       -0.2248
     15 C          66.3543   92.6998   14.1290 C.ar    1  UNL1        0.1666
     16 C          66.0999   94.8122   10.8827 C.ar    1  UNL1        0.0537
     17 C          65.1060   95.9319   10.7914 C.ar    1  UNL1        0.0062
     18 C          64.8007   96.5573    9.4627 C.ar    1  UNL1        0.0208
     19 C          65.4893   96.0631    8.2252 C.ar    1  UNL1        0.0989
     20 N          66.4832   94.9434    8.3164 N.ar    1  UNL1       -0.2422
     21 C          66.7886   94.3180    9.6452 C.ar    1  UNL1        0.1018
     22 C          61.4022   89.7530   10.1764 C.3     1  UNL1        0.0516
     23 CA         60.4399   88.9691   11.0187 C.3     1  UNL1        0.1102
     24 O          58.9993   91.0898   11.4395 O.co2   1  UNL1       -0.5475
     25 C          59.3694   89.6798   11.7926 C.2     1  UNL1        0.0684
     26 OXT        58.6690   88.9803   12.9197 O.co2   1  UNL1       -0.5475
     27 N          60.5481   87.4745   11.0869 N.pl3   1  UNL1       -0.3320
     28 H          60.3046   87.0007   11.9148 H       1  UNL1        0.1468
     29 C          61.0274   86.7020    9.8938 C.2     1  UNL1        0.0372
     30 C          60.7200   86.7192    8.4257 C.2     1  UNL1        0.0788
     31 BR         59.8060   87.5160    7.5427 Br      1  UNL1       -0.0451
     32 C          61.7051   85.6095    8.2065 C.2     1  UNL1        0.1842
     33 O          62.1843   84.8370    7.0134 O.2     1  UNL1       -0.2904
     34 C          62.0125   85.5923    9.6746 C.3     1  UNL1        0.0874
     35 C          62.8845   84.5249    9.0828 C.3     1  UNL1        0.0126
     36 C          63.7984   83.7281    9.9658 C.3     1  UNL1        0.0008
     37 C          63.8404   83.9987   11.4407 C.3     1  UNL1        0.0000
     38 C          62.9684   85.0661   12.0324 C.3     1  UNL1        0.0008
     39 C          62.0545   85.8629   11.1494 C.3     1  UNL1        0.0126
@<TRIPOS>UNITY_ATOM_ATTR
24 1
charge -1
@<TRIPOS>BOND
     1    24    25   ar
     2    25    26   ar
     3    25    23    1
     4    23    22    1
     5    22     1    1
     6     1     2   ar
     7     2     3   ar
     8     3     4   ar
     9     4     7    1
    10     7     8   ar
    11     8    16    1
    12    16    17   ar
    13    17    18   ar
    14    18    19   ar
    15    19    20   ar
    16    20    21   ar
    17     8     9   ar
    18     9    10   ar
    19    10    11   ar
    20    11    12   ar
    21    12    13   ar
    22    13    14   ar
    23    14    15   ar
    24     4     5   ar
    25     5     6   ar
    26    23    27    1
    27    27    29    1
    28    29    30    2
    29    30    31    1
    30    30    32    1
    31    32    33    2
    32    32    34    1
    33    34    35    1
    34    35    36    1
    35    36    37    1
    36    37    38    1
    37    38    39    1
    38     6     1   ar
    39    34    29    1
    40    15     7   ar
    41    39    34    1
    42    21    16   ar
    43    15    10   ar
    44    27    28    1
@<TRIPOS>MOLECULE
*****
 39 44 0 0 0
SMALL
GASTEIGER

@<TRIPOS>ATOM
      1 C          62.3792   86.6894    9.5877 C.ar    1  UNL1       -0.0201
      2 C          61.8180   86.5769   10.9742 C.ar    1  UNL1       -0.0027
      3 C          61.9639   85.2958   11.7407 C.ar    1  UNL1        0.0173
      4 C          62.6710   84.1271   11.1206 C.ar    1  UNL1        0.0667
      5 C          63.2322   84.2397    9.7342 C.ar    1  UNL1        0.0173
      6 C          63.0863   85.5208    8.9677 C.ar    1  UNL1       -0.0027
      7 N          62.8169   82.8460   11.8871 N.ar    1  UNL1       -0.2754
      8 C          63.0400   82.7235   13.3654 C.ar    1  UNL1        0.1503
      9 N          63.1263   81.2643   13.7017 N.ar    1  UNL1       -0.2248
     10 C          62.9566   80.4849   12.4314 C.ar    1  UNL1        0.1173
     11 C          62.9514   79.0114   12.1510 C.ar    1  UNL1        0.0238
     12 C          62.7551   78.5155   10.7490 C.ar    1  UNL1        0.0223
     13 C          62.5639   79.4930    9.6275 C.ar    1  UNL1        0.1006
     14 N          62.5690   80.9665    9.9079 N.ar    1  UNL1       -0.2248
     15 C          62.7654   81.4625   11.3099 C.ar    1  UNL1        0.1666
     16 C          63.1563   83.8606   14.3367 C.ar    1  UNL1        0.0537
     17 C          64.3477   84.7705   14.2871 C.ar    1  UNL1        0.0062
     18 C          64.4640   85.9076   15.2584 C.ar    1  UNL1        0.0208
     19 C          63.3889   86.1348   16.2794 C.ar    1  UNL1        0.0989
     20 N          62.1975   85.2249   16.3290 N.ar    1  UNL1       -0.2422
     21 C          62.0811   84.0878   15.3577 C.ar    1  UNL1        0.1018
     22 C          62.2333   87.9705    8.8212 C.3     1  UNL1        0.0516
     23 CA         60.9578   88.7550    8.9075 C.3     1  UNL1        0.1102
     24 O          59.0538   87.0030    8.6727 O.co2   1  UNL1       -0.5475
     25 C          59.7252   88.2617    8.2093 C.2     1  UNL1        0.0684
     26 OXT        59.1641   89.0271    7.0477 O.co2   1  UNL1       -0.5475
     27 N          60.9148   90.0328    9.6919 N.pl3   1  UNL1       -0.3320
     28 H          60.6120   90.8648    9.2614 H       1  UNL1        0.1468
     29 C          61.3333   90.0430   11.1323 C.2     1  UNL1        0.0372
     30 C          60.7440   89.5275   12.4118 C.2     1  UNL1        0.0788
     31 BR         59.4921   88.7882   12.7808 Br      1  UNL1       -0.0451
     32 C          61.9252   90.0574   13.1694 C.2     1  UNL1        0.1842
     33 O          62.3437   90.0676   14.6098 O.2     1  UNL1       -0.2904
     34 C          62.5145   90.5729   11.8899 C.3     1  UNL1        0.0874
     35 C          63.5029   90.9514   12.9529 C.3     1  UNL1        0.0126
     36 C          64.7548   91.6906   12.5839 C.3     1  UNL1        0.0008
     37 C          65.0184   92.0515   11.1520 C.3     1  UNL1        0.0000
     38 C          64.0300   91.6730   10.0891 C.3     1  UNL1        0.0008
     39 C          62.7781   90.9338   10.4581 C.3     1  UNL1        0.0126
@<TRIPOS>UNITY_ATOM_ATTR
24 1
charge -1
@<TRIPOS>BOND
     1    24    25   ar
     2    25    26   ar
     3    25    23    1
     4    23    22    1
     5    22     1    1
     6     1     2   ar
     7     2     3   ar
     8     3     4   ar
     9     4     7    1
    10     7     8   ar
    11     8    16    1
    12    16    17   ar
    13    17    18   ar
    14    18    19   ar
    15    19    20   ar
    16    20    21   ar
    17     8     9   ar
    18     9    10   ar
    19    10    11   ar
    20    11    12   ar
    21    12    13   ar
    22    13    14   ar
    23    14    15   ar
    24     4     5   ar
    25     5     6   ar
    26    23    27    1
    27    27    29    1
    28    29    30    2
    29    30    31    1
    30    30    32    1
    31    32    33    2
    32    32    34    1
    33    34    35    1
    34    35    36    1
    35    36    37    1
    36    37    38    1
    37    38    39    1
    38     6     1   ar
    39    34    29    1
    40    15     7   ar
    41    39    34    1
    42    21    16   ar
    43    15    10   ar
    44    27    28    1
@<TRIPOS>MOLECULE
*****
 39 44 0 0 0
SMALL
GASTEIGER

@<TRIPOS>ATOM
      1 C          62.4666   90.1816   10.4285 C.ar    1  UNL1       -0.0201
      2 C          63.1837   91.3959    9.9176 C.ar    1  UNL1       -0.0027
      3 C          64.2353   92.0557   10.7596 C.ar    1  UNL1        0.0173
      4 C          64.5697   91.5010   12.1126 C.ar    1  UNL1        0.0667
      5 C          63.8526   90.2867   12.6235 C.ar    1  UNL1        0.0173
      6 C          62.8010   89.6270   11.7815 C.ar    1  UNL1       -0.0027
      7 N          65.6213   92.1608   12.9546 N.ar    1  UNL1       -0.2754
      8 C          66.8379   92.8755   12.4458 C.ar    1  UNL1        0.1503
      9 N          67.6094   93.3781   13.6300 N.ar    1  UNL1       -0.2248
     10 C          66.8695   92.9738   14.8707 C.ar    1  UNL1        0.1173
     11 C          67.1560   93.1936   16.3265 C.ar    1  UNL1        0.0238
     12 C          66.2137   92.6611   17.3650 C.ar    1  UNL1        0.0223
     13 C          64.9850   91.9087   16.9476 C.ar    1  UNL1        0.1006
     14 N          64.6985   91.6889   15.4917 N.ar    1  UNL1       -0.2248
     15 C          65.6408   92.2215   14.4533 C.ar    1  UNL1        0.1666
     16 C          67.2166   93.0561   11.0057 C.ar    1  UNL1        0.0537
     17 C          68.0495   92.0184   10.3134 C.ar    1  UNL1        0.0062
     18 C          68.4282   92.1990    8.8732 C.ar    1  UNL1        0.0208
     19 C          67.9739   93.4173    8.1254 C.ar    1  UNL1        0.0989
     20 N          67.1410   94.4550    8.8177 N.ar    1  UNL1       -0.2422
     21 C          66.7623   94.2744   10.2578 C.ar    1  UNL1        0.1018
     22 C          61.4150   89.5219    9.5866 C.3     1  UNL1        0.0516
     23 CA         60.3163   88.7358   10.2385 C.3     1  UNL1        0.1102
     24 O          59.0428   90.8293   11.1019 O.co2   1  UNL1       -0.5475
     25 C          59.4301   89.3886   11.2576 C.2     1  UNL1        0.0684
     26 OXT        58.9314   88.6006   12.4325 O.co2   1  UNL1       -0.5475
     27 N          60.1038   87.2971    9.8713 N.pl3   1  UNL1       -0.3320
     28 H          59.2026   86.9764    9.6384 H       1  UNL1        0.1468
     29 C          61.2644   86.3470    9.8588 C.2     1  UNL1        0.0372
     30 C          62.2630   85.8789   10.8757 C.2     1  UNL1        0.0788
     31 BR         62.5146   86.1672   12.3260 Br      1  UNL1       -0.0451
     32 C          62.9059   85.0033    9.8413 C.2     1  UNL1        0.1842
     33 O          64.0665   84.0531    9.8289 O.2     1  UNL1       -0.2904
     34 C          61.9073   85.4713    8.8245 C.3     1  UNL1        0.0874
     35 C          62.7867   84.5043    8.0886 C.3     1  UNL1        0.0126
     36 C          62.5352   84.2160    6.6382 C.3     1  UNL1        0.0008
     37 C          61.4043   84.8947    5.9237 C.3     1  UNL1        0.0000
     38 C          60.5249   85.8617    6.6596 C.3     1  UNL1        0.0008
     39 C          60.7764   86.1500    8.1100 C.3     1  UNL1        0.0126
@<TRIPOS>UNITY_ATOM_ATTR
24 1
charge -1
@<TRIPOS>BOND
     1    24    25   ar
     2    25    26   ar
     3    25    23    1
     4    23    22    1
     5    22     1    1
     6     1     2   ar
     7     2     3   ar
     8     3     4   ar
     9     4     7    1
    10     7     8   ar
    11     8    16    1
    12    16    17   ar
    13    17    18   ar
    14    18    19   ar
    15    19    20   ar
    16    20    21   ar
    17     8     9   ar
    18     9    10   ar
    19    10    11   ar
    20    11    12   ar
    21    12    13   ar
    22    13    14   ar
    23    14    15   ar
    24     4     5   ar
    25     5     6   ar
    26    23    27    1
    27    27    29    1
    28    29    30    2
    29    30    31    1
    30    30    32    1
    31    32    33    2
    32    32    34    1
    33    34    35    1
    34    35    36    1
    35    36    37    1
    36    37    38    1
    37    38    39    1
    38     6     1   ar
    39    34    29    1
    40    15     7   ar
    41    39    34    1
    42    21    16   ar
    43    15    10   ar
    44    27    28    1
@<TRIPOS>MOLECULE
*****
 39 44 0 0 0
SMALL
GASTEIGER

@<TRIPOS>ATOM
      1 C          64.0226   89.0516   13.5649 C.ar    1  UNL1       -0.0201
      2 C          63.3993   89.8515   12.4596 C.ar    1  UNL1       -0.0027
      3 C          62.6646   89.1556   11.3524 C.ar    1  UNL1        0.0173
      4 C          62.5531   87.6597   11.3505 C.ar    1  UNL1        0.0667
      5 C          63.1764   86.8598   12.4558 C.ar    1  UNL1        0.0173
      6 C          63.9112   87.5558   13.5629 C.ar    1  UNL1       -0.0027
      7 N          61.8183   86.9638   10.2434 N.ar    1  UNL1       -0.2754
      8 C          61.9035   85.5038    9.9100 C.ar    1  UNL1        0.1503
      9 N          61.0072   85.2434    8.7358 N.ar    1  UNL1       -0.2248
     10 C          60.3680   86.5425    8.3434 C.ar    1  UNL1        0.1173
     11 C          59.3943   86.8946    7.2582 C.ar    1  UNL1        0.0238
     12 C          58.9219   88.3099    7.1046 C.ar    1  UNL1        0.0223
     13 C          59.4233   89.3732    8.0364 C.ar    1  UNL1        0.1006
     14 N          60.3970   89.0211    9.1217 N.ar    1  UNL1       -0.2248
     15 C          60.8693   87.6058    9.2752 C.ar    1  UNL1        0.1666
     16 C          62.7384   84.4833   10.6253 C.ar    1  UNL1        0.0537
     17 C          62.4056   84.0974   12.0360 C.ar    1  UNL1        0.0062
     18 C          63.2405   83.0769   12.7513 C.ar    1  UNL1        0.0208
     19 C          64.4082   82.4424   12.0558 C.ar    1  UNL1        0.0989
     20 N          64.7410   82.8284   10.6451 N.ar    1  UNL1       -0.2422
     21 C          63.9061   83.8488    9.9298 C.ar    1  UNL1        0.1018
     22 C          64.7574   89.7475   14.6720 C.3     1  UNL1        0.0516
     23 CA         64.3061   91.1002   15.1375 C.3     1  UNL1        0.1102
     24 O          63.0036   89.9996   17.0976 O.co2   1  UNL1       -0.5475
     25 C          63.4934   91.2291   16.3916 C.2     1  UNL1        0.0684
     26 OXT        63.1704   92.5875   16.9396 O.co2   1  UNL1       -0.5475
     27 N          64.6676   92.3238   14.3488 N.pl3   1  UNL1       -0.3320
     28 H          64.1448   93.1511   14.4565 H       1  UNL1        0.1468
     29 C          65.8255   92.2870   13.3960 C.2     1  UNL1        0.0372
     30 C          65.9700   92.2384   11.9037 C.2     1  UNL1        0.0788
     31 BR         65.0165   92.2065   10.7462 Br      1  UNL1       -0.0451
     32 C          67.4630   92.2349   12.0484 C.2     1  UNL1        0.1842
     33 O          68.6209   92.1981   11.0956 O.2     1  UNL1       -0.2904
     34 C          67.3184   92.2835   13.5407 C.3     1  UNL1        0.0874
     35 C          68.7980   92.2675   13.2942 C.3     1  UNL1        0.0126
     36 C          69.7515   92.2995   14.4517 C.3     1  UNL1        0.0008
     37 C          69.2255   92.3473   15.8557 C.3     1  UNL1        0.0000
     38 C          67.7460   92.3632   16.1021 C.3     1  UNL1        0.0008
     39 C          66.7925   92.3313   14.9446 C.3     1  UNL1        0.0126
@<TRIPOS>UNITY_ATOM_ATTR
24 1
charge -1
@<TRIPOS>BOND
     1    24    25   ar
     2    25    26   ar
     3    25    23    1
     4    23    22    1
     5    22     1    1
     6     1     2   ar
     7     2     3   ar
     8     3     4   ar
     9     4     7    1
    10     7     8   ar
    11     8    16    1
    12    16    17   ar
    13    17    18   ar
    14    18    19   ar
    15    19    20   ar
    16    20    21   ar
    17     8     9   ar
    18     9    10   ar
    19    10    11   ar
    20    11    12   ar
    21    12    13   ar
    22    13    14   ar
    23    14    15   ar
    24     4     5   ar
    25     5     6   ar
    26    23    27    1
    27    27    29    1
    28    29    30    2
    29    30    31    1
    30    30    32    1
    31    32    33    2
    32    32    34    1
    33    34    35    1
    34    35    36    1
    35    36    37    1
    36    37    38    1
    37    38    39    1
    38     6     1   ar
    39    34    29    1
    40    15     7   ar
    41    39    34    1
    42    21    16   ar
    43    15    10   ar
    44    27    28    1
