@<TRIPOS>MOLECULE
*****
 34 39 0 0 0
SMALL
GASTEIGER

@<TRIPOS>ATOM
      1 C          69.8728   93.8518   15.6582 C.3     1  UNL1        0.0896
      2 N          68.4879   93.2843   15.5579 N.3     1  UNL1       -0.2715
      3 C          67.6252   93.1909   16.7814 C.3     1  UNL1        0.0729
      4 C          66.2404   92.6234   16.6811 C.3     1  UNL1        0.0301
      5 C          65.7181   92.1493   15.3573 C.3     1  UNL1        0.0917
      6 C          66.5808   92.2427   14.1337 C.3     1  UNL1        0.0301
      7 C          67.9657   92.8102   14.2340 C.3     1  UNL1        0.0729
      8 C          64.7451   91.9936   16.4882 C.2     1  UNL1        0.2291
      9 O          64.9861   92.3780   17.9179 O.2     1  UNL1       -0.2745
     10 N          63.4887   91.3859   15.9383 N.am    1  UNL1       -0.2839
     11 C          63.6853   91.1661   14.4676 C.ar    1  UNL1        0.0467
     12 C          62.7876   90.5973   13.4090 C.ar    1  UNL1        0.0144
     13 C          63.2679   90.5003   11.9913 C.ar    1  UNL1        0.0012
     14 C          64.6457   90.9720   11.6321 C.ar    1  UNL1       -0.0002
     15 C          65.5434   91.5409   12.6908 C.ar    1  UNL1       -0.0026
     16 C          65.0632   91.6379   14.1085 C.ar    1  UNL1       -0.0010
     17 H          62.6775   91.1694   16.4524 H       1  UNL1        0.1549
     18 C          62.3703   89.9315   10.9326 C.2     1  UNL1        0.0001
     19 C          62.1145   88.4543   10.8804 C.2     1  UNL1        0.0027
     20 C          62.8043   87.6368   11.9320 C.ar    1  UNL1       -0.0004
     21 C          63.6297   88.4978   12.8415 C.ar    1  UNL1       -0.0002
     22 C          64.4036   87.8751   13.9654 C.ar    1  UNL1       -0.0000
     23 C          64.3520   86.3914   14.1798 C.ar    1  UNL1       -0.0002
     24 C          63.5265   85.5304   13.2703 C.ar    1  UNL1       -0.0007
     25 C          62.7527   86.1531   12.1464 C.ar    1  UNL1        0.0212
     26 C          61.9985   85.1206   11.3621 C.3     1  UNL1        0.2320
     27 O          61.1097   85.3166   10.1698 O.3     1  UNL1       -0.4706
     28 C          60.7556   86.5937    9.4672 C.ar    1  UNL1        0.1412
     29 C          59.8309   86.3457    8.3125 C.ar    1  UNL1        0.0665
     30 C          59.3533   87.4941    7.4740 C.ar    1  UNL1        0.1432
     31 F          58.4286   87.2461    6.3192 F       1  UNL1       -0.2041
     32 C          59.8005   88.8905    7.7902 C.ar    1  UNL1        0.0298
     33 C          60.7252   89.1385    8.9449 C.ar    1  UNL1        0.0053
     34 C          61.2027   87.9902    9.7834 C.ar    1  UNL1        0.0341
@<TRIPOS>BOND
     1     1     2    1
     2     2     3    1
     3     3     4    1
     4     4     5    1
     5     5     6    1
     6     6     7    1
     7     5     8    1
     8     8     9    2
     9     8    10   am
    10    10    11    1
    11    11    12   ar
    12    12    13   ar
    13    13    18    1
    14    18    19    2
    15    19    20    1
    16    20    21   ar
    17    21    22   ar
    18    22    23   ar
    19    23    24   ar
    20    24    25   ar
    21    25    26    1
    22    26    27    1
    23    27    28    1
    24    28    29   ar
    25    29    30   ar
    26    30    31    1
    27    30    32   ar
    28    32    33   ar
    29    33    34   ar
    30    13    14   ar
    31    14    15   ar
    32    15    16   ar
    33     7     2    1
    34    16    11   ar
    35    16     5    1
    36    34    19    1
    37    25    20   ar
    38    34    28   ar
    39    10    17    1
@<TRIPOS>MOLECULE
*****
 34 39 0 0 0
SMALL
GASTEIGER

@<TRIPOS>ATOM
      1 C          64.3687   95.9075    1.8172 C.3     1  UNL1        0.0896
      2 N          63.1574   95.1778    1.3169 N.3     1  UNL1       -0.2715
      3 C          63.1489   93.6783    1.2758 C.3     1  UNL1        0.0729
      4 C          61.9377   92.9486    0.7756 C.3     1  UNL1        0.0301
      5 C          60.7348   93.7183    0.3164 C.3     1  UNL1        0.0917
      6 C          60.7432   95.2177    0.3575 C.3     1  UNL1        0.0301
      7 C          61.9546   95.9474    0.8578 C.3     1  UNL1        0.0729
      8 C          60.5807   92.2295    0.2177 C.2     1  UNL1        0.2291
      9 O          61.6108   91.2091    0.6018 O.2     1  UNL1       -0.2745
     10 N          59.2156   91.9403   -0.3327 N.am    1  UNL1       -0.2839
     11 C          58.5260   93.2503   -0.5741 C.ar    1  UNL1        0.0467
     12 C          57.1644   93.5846   -1.1073 C.ar    1  UNL1        0.0144
     13 C          56.7419   95.0177   -1.2394 C.ar    1  UNL1        0.0012
     14 C          57.6807   96.1166   -0.8383 C.ar    1  UNL1       -0.0002
     15 C          59.0423   95.7824   -0.3050 C.ar    1  UNL1       -0.0026
     16 C          59.4650   94.3492   -0.1729 C.ar    1  UNL1       -0.0010
     17 H          58.8384   91.0474   -0.5052 H       1  UNL1        0.1549
     18 C          55.3803   95.3521   -1.7727 C.2     1  UNL1        0.0001
     19 C          55.1728   95.5177   -3.2490 C.2     1  UNL1        0.0027
     20 C          56.3915   95.3278   -4.1028 C.ar    1  UNL1       -0.0004
     21 C          57.5972   95.0023   -3.2721 C.ar    1  UNL1       -0.0002
     22 C          58.9240   94.7735   -3.9334 C.ar    1  UNL1       -0.0000
     23 C          59.0450   94.8704   -5.4254 C.ar    1  UNL1       -0.0002
     24 C          57.8392   95.1959   -6.2560 C.ar    1  UNL1       -0.0007
     25 C          56.5124   95.4246   -5.5947 C.ar    1  UNL1        0.0212
     26 C          55.4446   95.7352   -6.6014 C.3     1  UNL1        0.2320
     27 O          53.9922   96.0257   -6.3648 O.3     1  UNL1       -0.4706
     28 C          53.2488   96.0773   -5.0630 C.ar    1  UNL1        0.1412
     29 C          51.7997   96.4037   -5.2720 C.ar    1  UNL1        0.0665
     30 C          50.8760   96.5040   -4.0943 C.ar    1  UNL1        0.1432
     31 F          49.4270   96.8303   -4.3033 F       1  UNL1       -0.2041
     32 C          51.4015   96.2779   -2.7077 C.ar    1  UNL1        0.0298
     33 C          52.8505   95.9515   -2.4987 C.ar    1  UNL1        0.0053
     34 C          53.7742   95.8512   -3.6763 C.ar    1  UNL1        0.0341
@<TRIPOS>BOND
     1     1     2    1
     2     2     3    1
     3     3     4    1
     4     4     5    1
     5     5     6    1
     6     6     7    1
     7     5     8    1
     8     8     9    2
     9     8    10   am
    10    10    11    1
    11    11    12   ar
    12    12    13   ar
    13    13    18    1
    14    18    19    2
    15    19    20    1
    16    20    21   ar
    17    21    22   ar
    18    22    23   ar
    19    23    24   ar
    20    24    25   ar
    21    25    26    1
    22    26    27    1
    23    27    28    1
    24    28    29   ar
    25    29    30   ar
    26    30    31    1
    27    30    32   ar
    28    32    33   ar
    29    33    34   ar
    30    13    14   ar
    31    14    15   ar
    32    15    16   ar
    33     7     2    1
    34    16    11   ar
    35    16     5    1
    36    34    19    1
    37    25    20   ar
    38    34    28   ar
    39    10    17    1
@<TRIPOS>MOLECULE
*****
 34 39 0 0 0
SMALL
GASTEIGER

@<TRIPOS>ATOM
      1 C          63.1170   78.2699    9.7617 C.3     1  UNL1        0.0896
      2 N          62.8833   79.3103   10.8165 N.3     1  UNL1       -0.2715
      3 C          62.0286   78.9922   12.0074 C.3     1  UNL1        0.0729
      4 C          61.7948   80.0327   13.0623 C.3     1  UNL1        0.0301
      5 C          62.4157   81.3913   12.9263 C.3     1  UNL1        0.0917
      6 C          63.2705   81.7095   11.7353 C.3     1  UNL1        0.0301
      7 C          63.5042   80.6690   10.6805 C.3     1  UNL1        0.0729
      8 C          61.5891   81.2197   14.1661 C.2     1  UNL1        0.2291
      9 O          60.8511   79.9774   14.5687 O.2     1  UNL1       -0.2745
     10 N          61.6300   82.5084   14.9326 N.am    1  UNL1       -0.2839
     11 C          62.4820   83.4765   14.1665 C.ar    1  UNL1        0.0467
     12 C          62.8783   84.8976   14.4378 C.ar    1  UNL1        0.0144
     13 C          63.7602   85.6281   13.4691 C.ar    1  UNL1        0.0012
     14 C          64.2459   84.9378   12.2291 C.ar    1  UNL1       -0.0002
     15 C          63.8495   83.5168   11.9578 C.ar    1  UNL1       -0.0026
     16 C          62.9676   82.7861   12.9265 C.ar    1  UNL1       -0.0010
     17 H          61.1772   82.6874   15.7883 H       1  UNL1        0.1549
     18 C          64.1566   87.0492   13.7404 C.2     1  UNL1        0.0001
     19 C          63.6197   88.1548   12.8805 C.2     1  UNL1        0.0027
     20 C          62.6951   87.7313   11.7779 C.ar    1  UNL1       -0.0004
     21 C          62.4975   86.2444   11.7693 C.ar    1  UNL1       -0.0002
     22 C          61.6057   85.6123   10.7421 C.ar    1  UNL1       -0.0000
     23 C          60.9114   86.4671    9.7236 C.ar    1  UNL1       -0.0002
     24 C          61.1090   87.9540    9.7323 C.ar    1  UNL1       -0.0007
     25 C          62.0008   88.5861   10.7595 C.ar    1  UNL1        0.0212
     26 C          62.0597   90.0756   10.5921 C.3     1  UNL1        0.2320
     27 O          62.8274   91.0781   11.4017 O.3     1  UNL1       -0.4706
     28 C          63.7258   90.8387   12.5788 C.ar    1  UNL1        0.1412
     29 C          64.3012   92.1226   13.0991 C.ar    1  UNL1        0.0665
     30 C          65.2292   92.1055   14.2775 C.ar    1  UNL1        0.1432
     31 F          65.8045   93.3893   14.7978 F       1  UNL1       -0.2041
     32 C          65.5818   90.8045   14.9356 C.ar    1  UNL1        0.0298
     33 C          65.0064   89.5207   14.4153 C.ar    1  UNL1        0.0053
     34 C          64.0785   89.5377   13.2370 C.ar    1  UNL1        0.0341
@<TRIPOS>BOND
     1     1     2    1
     2     2     3    1
     3     3     4    1
     4     4     5    1
     5     5     6    1
     6     6     7    1
     7     5     8    1
     8     8     9    2
     9     8    10   am
    10    10    11    1
    11    11    12   ar
    12    12    13   ar
    13    13    18    1
    14    18    19    2
    15    19    20    1
    16    20    21   ar
    17    21    22   ar
    18    22    23   ar
    19    23    24   ar
    20    24    25   ar
    21    25    26    1
    22    26    27    1
    23    27    28    1
    24    28    29   ar
    25    29    30   ar
    26    30    31    1
    27    30    32   ar
    28    32    33   ar
    29    33    34   ar
    30    13    14   ar
    31    14    15   ar
    32    15    16   ar
    33     7     2    1
    34    16    11   ar
    35    16     5    1
    36    34    19    1
    37    25    20   ar
    38    34    28   ar
    39    10    17    1
@<TRIPOS>MOLECULE
*****
 34 39 0 0 0
SMALL
GASTEIGER

@<TRIPOS>ATOM
      1 C          59.2204   79.1016   14.5923 C.3     1  UNL1        0.0896
      2 N          60.3301   79.9773   14.0907 N.3     1  UNL1       -0.2715
      3 C          61.3268   79.4364   13.1088 C.3     1  UNL1        0.0729
      4 C          62.4365   80.3121   12.6071 C.3     1  UNL1        0.0301
      5 C          62.5495   81.7287   13.0873 C.3     1  UNL1        0.0917
      6 C          61.5528   82.2696   14.0691 C.3     1  UNL1        0.0301
      7 C          60.4431   81.3939   14.5708 C.3     1  UNL1        0.0729
      8 C          63.6146   81.3291   12.1095 C.2     1  UNL1        0.2291
      9 O          63.7569   79.9837   11.4618 O.2     1  UNL1       -0.2745
     10 N          64.5123   82.5112   11.8932 N.am    1  UNL1       -0.2839
     11 C          64.0021   83.6413   12.7373 C.ar    1  UNL1        0.0467
     12 C          64.4855   85.0483   12.9292 C.ar    1  UNL1        0.0144
     13 C          63.7556   85.9716   13.8592 C.ar    1  UNL1        0.0012
     14 C          62.5426   85.4881   14.5972 C.ar    1  UNL1       -0.0002
     15 C          62.0593   84.0811   14.4052 C.ar    1  UNL1       -0.0026
     16 C          62.7890   83.1577   13.4753 C.ar    1  UNL1       -0.0010
     17 H          65.2984   82.5402   11.3012 H       1  UNL1        0.1549
     18 C          64.2389   87.3787   14.0512 C.2     1  UNL1        0.0001
     19 C          63.8388   88.4484   13.0788 C.2     1  UNL1        0.0027
     20 C          62.9544   88.0052   11.9513 C.ar    1  UNL1       -0.0004
     21 C          62.6481   86.5394   12.0386 C.ar    1  UNL1       -0.0002
     22 C          61.7763   85.8925   11.0036 C.ar    1  UNL1       -0.0000
     23 C          61.2107   86.7114    9.8812 C.ar    1  UNL1       -0.0002
     24 C          61.5169   88.1771    9.7939 C.ar    1  UNL1       -0.0007
     25 C          62.3888   88.8241   10.8290 C.ar    1  UNL1        0.0212
     26 C          62.5680   90.2883   10.5571 C.3     1  UNL1        0.2320
     27 O          63.3570   91.2954   11.3402 O.3     1  UNL1       -0.4706
     28 C          64.1617   91.0868   12.5888 C.ar    1  UNL1        0.1412
     29 C          64.7977   92.3644   13.0506 C.ar    1  UNL1        0.0665
     30 C          65.6482   92.3750   14.2862 C.ar    1  UNL1        0.1432
     31 F          66.2843   93.6526   14.7479 F       1  UNL1       -0.2041
     32 C          65.8627   91.1080   15.0599 C.ar    1  UNL1        0.0298
     33 C          65.2266   89.8304   14.5981 C.ar    1  UNL1        0.0053
     34 C          64.3762   89.8198   13.3626 C.ar    1  UNL1        0.0341
@<TRIPOS>BOND
     1     1     2    1
     2     2     3    1
     3     3     4    1
     4     4     5    1
     5     5     6    1
     6     6     7    1
     7     5     8    1
     8     8     9    2
     9     8    10   am
    10    10    11    1
    11    11    12   ar
    12    12    13   ar
    13    13    18    1
    14    18    19    2
    15    19    20    1
    16    20    21   ar
    17    21    22   ar
    18    22    23   ar
    19    23    24   ar
    20    24    25   ar
    21    25    26    1
    22    26    27    1
    23    27    28    1
    24    28    29   ar
    25    29    30   ar
    26    30    31    1
    27    30    32   ar
    28    32    33   ar
    29    33    34   ar
    30    13    14   ar
    31    14    15   ar
    32    15    16   ar
    33     7     2    1
    34    16    11   ar
    35    16     5    1
    36    34    19    1
    37    25    20   ar
    38    34    28   ar
    39    10    17    1
@<TRIPOS>MOLECULE
*****
 34 39 0 0 0
SMALL
GASTEIGER

@<TRIPOS>ATOM
      1 C          65.7610   94.7208    1.4688 C.3     1  UNL1        0.0896
      2 N          64.2834   94.7909    1.2204 N.3     1  UNL1       -0.2715
      3 C          63.4389   95.7634    1.9893 C.3     1  UNL1        0.0729
      4 C          61.9613   95.8335    1.7409 C.3     1  UNL1        0.0301
      5 C          61.3281   94.9313    0.7236 C.3     1  UNL1        0.0917
      6 C          62.1726   93.9588   -0.0454 C.3     1  UNL1        0.0301
      7 C          63.6502   93.8887    0.2030 C.3     1  UNL1        0.0729
      8 C          60.3609   95.8481    1.4119 C.2     1  UNL1        0.2291
      9 O          60.7015   96.8558    2.4695 O.2     1  UNL1       -0.2745
     10 N          58.9933   95.5804    0.8569 N.am    1  UNL1       -0.2839
     11 C          59.1153   94.4980   -0.1744 C.ar    1  UNL1        0.0467
     12 C          58.0988   93.8259   -1.0490 C.ar    1  UNL1        0.0144
     13 C          58.5254   92.7527   -2.0061 C.ar    1  UNL1        0.0012
     14 C          59.9684   92.3514   -2.0886 C.ar    1  UNL1       -0.0002
     15 C          60.9849   93.0235   -1.2140 C.ar    1  UNL1       -0.0026
     16 C          60.5583   94.0968   -0.2568 C.ar    1  UNL1       -0.0010
     17 H          58.1616   96.0352    1.1229 H       1  UNL1        0.1549
     18 C          57.5089   92.0805   -2.8809 C.2     1  UNL1        0.0001
     19 C          57.3573   92.4998   -4.3131 C.2     1  UNL1        0.0027
     20 C          58.2701   93.5991   -4.7695 C.ar    1  UNL1       -0.0004
     21 C          59.1694   94.0603   -3.6612 C.ar    1  UNL1       -0.0002
     22 C          60.1626   95.1569   -3.9083 C.ar    1  UNL1       -0.0000
     23 C          60.2565   95.7922   -5.2639 C.ar    1  UNL1       -0.0002
     24 C          59.3572   95.3310   -6.3723 C.ar    1  UNL1       -0.0007
     25 C          58.3640   94.2344   -6.1251 C.ar    1  UNL1        0.0212
     26 C          57.5682   93.9273   -7.3590 C.3     1  UNL1        0.2320
     27 O          56.4821   92.9092   -7.5421 O.3     1  UNL1       -0.4706
     28 C          55.9234   91.9465   -6.5365 C.ar    1  UNL1        0.1412
     29 C          54.8409   91.0971   -7.1336 C.ar    1  UNL1        0.0665
     30 C          54.1478   90.0655   -6.2937 C.ar    1  UNL1        0.1432
     31 F          53.0652   89.2161   -6.8908 F       1  UNL1       -0.2041
     32 C          54.5373   89.8833   -4.8567 C.ar    1  UNL1        0.0298
     33 C          55.6199   90.7327   -4.2596 C.ar    1  UNL1        0.0053
     34 C          56.3129   91.7643   -5.0994 C.ar    1  UNL1        0.0341
@<TRIPOS>BOND
     1     1     2    1
     2     2     3    1
     3     3     4    1
     4     4     5    1
     5     5     6    1
     6     6     7    1
     7     5     8    1
     8     8     9    2
     9     8    10   am
    10    10    11    1
    11    11    12   ar
    12    12    13   ar
    13    13    18    1
    14    18    19    2
    15    19    20    1
    16    20    21   ar
    17    21    22   ar
    18    22    23   ar
    19    23    24   ar
    20    24    25   ar
    21    25    26    1
    22    26    27    1
    23    27    28    1
    24    28    29   ar
    25    29    30   ar
    26    30    31    1
    27    30    32   ar
    28    32    33   ar
    29    33    34   ar
    30    13    14   ar
    31    14    15   ar
    32    15    16   ar
    33     7     2    1
    34    16    11   ar
    35    16     5    1
    36    34    19    1
    37    25    20   ar
    38    34    28   ar
    39    10    17    1
