@<TRIPOS>MOLECULE
*****
 29 33 0 0 0
SMALL
GASTEIGER

@<TRIPOS>ATOM
      1 C          63.5453   89.2287   13.0414 C.ar    1  UNL1        0.1347
      2 C          62.5270   89.4781   11.9686 C.ar    1  UNL1        0.0507
      3 C          61.8218   88.3234   11.3209 C.ar    1  UNL1        0.0831
      4 N          62.1350   86.9194   11.7459 N.ar    1  UNL1       -0.2295
      5 C          63.1533   86.6701   12.8188 C.ar    1  UNL1        0.1600
      6 N          63.8585   87.8247   13.4665 N.ar    1  UNL1       -0.2122
      7 C          63.4665   85.2661   13.2438 C.2     1  UNL1        0.0230
      8 C          63.6183   84.9395   14.7000 C.2     1  UNL1       -0.0005
      9 C          63.9315   83.5355   15.1250 C.2     1  UNL1        0.0010
     10 C          64.0928   82.4580   14.0940 C.2     1  UNL1        0.0153
     11 C          63.9409   82.7846   12.6379 C.2     1  UNL1        0.0669
     12 N          64.0429   81.9384   11.4035 N.2     1  UNL1       -0.2478
     13 C          63.7928   82.8194   10.2156 C.2     1  UNL1        0.0946
     14 C          63.5362   84.2102   10.7157 C.2     1  UNL1        0.0046
     15 C          63.6278   84.1886   12.2128 C.3     1  UNL1        0.0888
     16 C          63.3011   89.6674   15.9991 C.3     1  UNL1        0.0241
     17 C          64.1283   90.6027   15.1679 C.3     1  UNL1        0.1038
     18 C          64.8335   91.7573   15.8157 C.3     1  UNL1        0.1618
     19 O          65.6607   92.6927   14.9845 O.3     1  UNL1       -0.3502
     20 C          65.7828   92.4735   13.5057 C.3     1  UNL1        0.1636
     21 C          65.0777   91.3188   12.8579 C.3     1  UNL1        0.1242
     22 N          64.2504   90.3834   13.6891 N.pl3   1  UNL1       -0.2897
     23 C          60.8035   88.5727   10.2481 C.3     1  UNL1        0.1456
     24 C          60.0853   88.4706    8.9352 C.3     1  UNL1        0.0297
     25 C          61.3142   87.6471    9.1840 C.3     1  UNL1        0.0297
     26 S          59.9392   89.5850   10.9397 S.O2    1  UNL1       -0.0065
     27 C          59.0750   90.5973   11.6312 C.3     1  UNL1        0.1764
     28 O          59.5651   88.5615   11.9704 O.2     1  UNL1       -0.1727
     29 O          60.3133   90.6086    9.9090 O.2     1  UNL1       -0.1727
@<TRIPOS>BOND
     1    17    16    1
     2    17    18    1
     3    18    19    1
     4    19    20    1
     5    20    21    1
     6    21    22    1
     7    22     1    1
     8     1     2   ar
     9     2     3   ar
    10     3    23    1
    11    23    26    1
    12    26    27    1
    13    26    28    2
    14    26    29    2
    15    23    24    1
    16    24    25    1
    17     3     4   ar
    18     4     5   ar
    19     5     7    1
    20     7     8    2
    21     8     9    1
    22     9    10    2
    23    10    11    1
    24    11    12    2
    25    12    13    1
    26    13    14    2
    27    14    15    1
    28     5     6   ar
    29    22    17    1
    30     6     1   ar
    31    25    23    1
    32    15     7    1
    33    15    11    1
@<TRIPOS>MOLECULE
*****
 29 33 0 0 0
SMALL
GASTEIGER

@<TRIPOS>ATOM
      1 C          65.4323   92.8796   11.2784 C.ar    1  UNL1        0.1347
      2 C          65.7160   92.8726   12.7513 C.ar    1  UNL1        0.0507
      3 C          64.9872   91.9186   13.6508 C.ar    1  UNL1        0.0831
      4 N          63.9750   90.9719   13.0774 N.ar    1  UNL1       -0.2295
      5 C          63.6913   90.9790   11.6044 C.ar    1  UNL1        0.1600
      6 N          64.4200   91.9328   10.7049 N.ar    1  UNL1       -0.2122
      7 C          62.6790   90.0322   11.0311 C.2     1  UNL1        0.0230
      8 C          61.7194   90.5063    9.9802 C.2     1  UNL1       -0.0005
      9 C          60.7071   89.5596    9.4069 C.2     1  UNL1        0.0010
     10 C          60.6543   88.1385    9.8843 C.2     1  UNL1        0.0153
     11 C          61.6140   87.6643   10.9351 C.2     1  UNL1        0.0669
     12 N          61.7991   86.3311   11.5971 N.2     1  UNL1       -0.2478
     13 C          62.9258   86.4539   12.5796 C.2     1  UNL1        0.0946
     14 C          63.4371   87.8631   12.5248 C.2     1  UNL1        0.0046
     15 C          62.6263   88.6112   11.5085 C.3     1  UNL1        0.0888
     16 C          67.9248   91.9976    9.8607 C.3     1  UNL1        0.0241
     17 C          67.4072   93.3925    9.6700 C.3     1  UNL1        0.1038
     18 C          68.1359   94.3464    8.7705 C.3     1  UNL1        0.1618
     19 O          67.6183   95.7412    8.5798 O.3     1  UNL1       -0.3502
     20 C          66.3722   96.1824    9.2886 C.3     1  UNL1        0.1636
     21 C          65.6434   95.2285   10.1881 C.3     1  UNL1        0.1242
     22 N          66.1610   93.8335   10.3789 N.pl3   1  UNL1       -0.2897
     23 C          65.2709   91.9116   15.1237 C.3     1  UNL1        0.1456
     24 C          65.8922   92.2695   16.4413 C.3     1  UNL1        0.0297
     25 C          66.3416   92.9602   15.1878 C.3     1  UNL1        0.0297
     26 S          64.2988   90.8605   15.5711 S.O2    1  UNL1       -0.0065
     27 C          63.3267   89.8094   16.0185 C.3     1  UNL1        0.1764
     28 O          63.4805   91.9112   16.2614 O.2     1  UNL1       -0.1727
     29 O          65.1170   89.8098   14.8808 O.2     1  UNL1       -0.1727
@<TRIPOS>BOND
     1    17    16    1
     2    17    18    1
     3    18    19    1
     4    19    20    1
     5    20    21    1
     6    21    22    1
     7    22     1    1
     8     1     2   ar
     9     2     3   ar
    10     3    23    1
    11    23    26    1
    12    26    27    1
    13    26    28    2
    14    26    29    2
    15    23    24    1
    16    24    25    1
    17     3     4   ar
    18     4     5   ar
    19     5     7    1
    20     7     8    2
    21     8     9    1
    22     9    10    2
    23    10    11    1
    24    11    12    2
    25    12    13    1
    26    13    14    2
    27    14    15    1
    28     5     6   ar
    29    22    17    1
    30     6     1   ar
    31    25    23    1
    32    15     7    1
    33    15    11    1
@<TRIPOS>MOLECULE
*****
 29 33 0 0 0
SMALL
GASTEIGER

@<TRIPOS>ATOM
      1 C          63.6279   88.4679   13.2555 C.ar    1  UNL1        0.1347
      2 C          64.0106   87.1940   13.9488 C.ar    1  UNL1        0.0507
      3 C          63.5186   85.8776   13.4242 C.ar    1  UNL1        0.0831
      4 N          62.6440   85.8352   12.2065 N.ar    1  UNL1       -0.2295
      5 C          62.2612   87.1091   11.5131 C.ar    1  UNL1        0.1600
      6 N          62.7532   88.4255   12.0376 N.ar    1  UNL1       -0.2122
      7 C          61.3865   87.0667   10.2953 C.2     1  UNL1        0.0230
      8 C          60.1238   87.8750   10.2502 C.2     1  UNL1       -0.0005
      9 C          59.2491   87.8326    9.0325 C.2     1  UNL1        0.0010
     10 C          59.6371   86.9817    7.8596 C.2     1  UNL1        0.0153
     11 C          60.8998   86.1733    7.9047 C.2     1  UNL1        0.0669
     12 N          61.5359   85.2491    6.9091 N.2     1  UNL1       -0.2478
     13 C          62.8037   84.7203    7.5116 C.2     1  UNL1        0.0946
     14 C          62.9512   85.3178    8.8796 C.2     1  UNL1        0.0046
     15 C          61.7745   86.2158    9.1225 C.3     1  UNL1        0.0888
     16 C          63.2391   89.1708   16.1459 C.3     1  UNL1        0.0241
     17 C          63.9255   90.1357   15.2252 C.3     1  UNL1        0.1038
     18 C          64.4175   91.4521   15.7497 C.3     1  UNL1        0.1618
     19 O          65.1038   92.4170   14.8290 O.3     1  UNL1       -0.3502
     20 C          65.2983   92.0657   13.3838 C.3     1  UNL1        0.1636
     21 C          64.8063   90.7493   12.8592 C.3     1  UNL1        0.1242
     22 N          64.1199   89.7843   13.7800 N.pl3   1  UNL1       -0.2897
     23 C          63.9014   84.6038   14.1175 C.3     1  UNL1        0.1456
     24 C          64.4882   83.6773   15.1410 C.3     1  UNL1        0.0297
     25 C          64.6221   85.1619   15.3088 C.3     1  UNL1        0.0297
     26 S          63.3135   83.6032   13.1671 S.O2    1  UNL1       -0.0065
     27 C          62.7257   82.6027   12.2167 C.3     1  UNL1        0.1764
     28 O          64.5120   83.7453   12.2763 O.2     1  UNL1       -0.1727
     29 O          62.1150   83.4611   14.0579 O.2     1  UNL1       -0.1727
@<TRIPOS>BOND
     1    17    16    1
     2    17    18    1
     3    18    19    1
     4    19    20    1
     5    20    21    1
     6    21    22    1
     7    22     1    1
     8     1     2   ar
     9     2     3   ar
    10     3    23    1
    11    23    26    1
    12    26    27    1
    13    26    28    2
    14    26    29    2
    15    23    24    1
    16    24    25    1
    17     3     4   ar
    18     4     5   ar
    19     5     7    1
    20     7     8    2
    21     8     9    1
    22     9    10    2
    23    10    11    1
    24    11    12    2
    25    12    13    1
    26    13    14    2
    27    14    15    1
    28     5     6   ar
    29    22    17    1
    30     6     1   ar
    31    25    23    1
    32    15     7    1
    33    15    11    1
@<TRIPOS>MOLECULE
*****
 29 33 0 0 0
SMALL
GASTEIGER

@<TRIPOS>ATOM
      1 C          61.8828   86.4746   10.8340 C.ar    1  UNL1        0.1347
      2 C          62.1086   85.2207   11.6256 C.ar    1  UNL1        0.0507
      3 C          62.9120   85.2674   12.8915 C.ar    1  UNL1        0.0831
      4 N          63.4894   86.5679   13.3658 N.ar    1  UNL1       -0.2295
      5 C          63.2635   87.8219   12.5742 C.ar    1  UNL1        0.1600
      6 N          62.4602   87.7753   11.3083 N.ar    1  UNL1       -0.2122
      7 C          63.8410   89.1225   13.0486 C.2     1  UNL1        0.0230
      8 C          64.3618   89.2452   14.4498 C.2     1  UNL1       -0.0005
      9 C          64.9393   90.5457   14.9242 C.2     1  UNL1        0.0010
     10 C          64.9959   91.7237   13.9973 C.2     1  UNL1        0.0153
     11 C          64.4750   91.6011   12.5960 C.2     1  UNL1        0.0669
     12 N          64.3985   92.5825   11.4642 N.2     1  UNL1       -0.2478
     13 C          63.7738   91.8884   10.2903 C.2     1  UNL1        0.0946
     14 C          63.4642   90.4781   10.6966 C.2     1  UNL1        0.0046
     15 C          63.8975   90.3005   12.1216 C.3     1  UNL1        0.0888
     16 C          62.9950   85.1172    8.4008 C.3     1  UNL1        0.0241
     17 C          61.6355   85.7493    8.3516 C.3     1  UNL1        0.1038
     18 C          60.8322   85.7026    7.0857 C.3     1  UNL1        0.1618
     19 O          59.4728   86.3347    7.0364 O.3     1  UNL1       -0.3502
     20 C          58.9166   87.0134    8.2529 C.3     1  UNL1        0.1636
     21 C          59.7199   87.0601    9.5189 C.3     1  UNL1        0.1242
     22 N          61.0794   86.4280    9.5682 N.pl3   1  UNL1       -0.2897
     23 C          63.1379   84.0134   13.6831 C.3     1  UNL1        0.1456
     24 C          63.3155   82.5574   13.9969 C.3     1  UNL1        0.0297
     25 C          63.0773   82.9961   12.5824 C.3     1  UNL1        0.0297
     26 S          63.2768   84.5952   15.0586 S.O2    1  UNL1       -0.0065
     27 C          63.4158   85.1770   16.4341 C.3     1  UNL1        0.1764
     28 O          61.7858   84.7291   15.1527 O.2     1  UNL1       -0.1727
     29 O          64.7679   84.4614   14.9646 O.2     1  UNL1       -0.1727
@<TRIPOS>BOND
     1    17    16    1
     2    17    18    1
     3    18    19    1
     4    19    20    1
     5    20    21    1
     6    21    22    1
     7    22     1    1
     8     1     2   ar
     9     2     3   ar
    10     3    23    1
    11    23    26    1
    12    26    27    1
    13    26    28    2
    14    26    29    2
    15    23    24    1
    16    24    25    1
    17     3     4   ar
    18     4     5   ar
    19     5     7    1
    20     7     8    2
    21     8     9    1
    22     9    10    2
    23    10    11    1
    24    11    12    2
    25    12    13    1
    26    13    14    2
    27    14    15    1
    28     5     6   ar
    29    22    17    1
    30     6     1   ar
    31    25    23    1
    32    15     7    1
    33    15    11    1
@<TRIPOS>MOLECULE
*****
 29 33 0 0 0
SMALL
GASTEIGER

@<TRIPOS>ATOM
      1 C          62.7314   85.6411   12.3145 C.ar    1  UNL1        0.1347
      2 C          61.7348   85.8991   11.2235 C.ar    1  UNL1        0.0507
      3 C          61.4669   87.3034   10.7691 C.ar    1  UNL1        0.0831
      4 N          62.1956   88.4495   11.4057 N.ar    1  UNL1       -0.2295
      5 C          63.1923   88.1914   12.4967 C.ar    1  UNL1        0.1600
      6 N          63.4601   86.7873   12.9511 N.ar    1  UNL1       -0.2122
      7 C          63.9210   89.3376   13.1333 C.2     1  UNL1        0.0230
      8 C          64.3699   89.2407   14.5613 C.2     1  UNL1       -0.0005
      9 C          65.0986   90.3868   15.1978 C.2     1  UNL1        0.0010
     10 C          65.3784   91.6300   14.4065 C.2     1  UNL1        0.0153
     11 C          64.9294   91.7270   12.9786 C.2     1  UNL1        0.0669
     12 N          65.0618   92.8171   11.9567 N.2     1  UNL1       -0.2478
     13 C          64.4148   92.3446   10.6886 C.2     1  UNL1        0.0946
     14 C          63.8827   90.9625   10.9267 C.2     1  UNL1        0.0046
     15 C          64.2007   90.5808   12.3420 C.3     1  UNL1        0.0888
     16 C          63.9440   83.6568   10.4192 C.3     1  UNL1        0.0241
     17 C          63.6056   83.2447   11.8212 C.3     1  UNL1        0.1038
     18 C          63.8734   81.8406   12.2756 C.3     1  UNL1        0.1618
     19 O          63.5350   81.4285   13.6776 O.3     1  UNL1       -0.3502
     20 C          62.9287   82.4206   14.6253 C.3     1  UNL1        0.1636
     21 C          62.6608   83.8248   14.1710 C.3     1  UNL1        0.1242
     22 N          62.9992   84.2369   12.7689 N.pl3   1  UNL1       -0.2897
     23 C          60.4704   87.5614    9.6782 C.3     1  UNL1        0.1456
     24 C          59.6219   87.3359    8.4619 C.3     1  UNL1        0.0297
     25 C          60.5509   86.2589    8.9385 C.3     1  UNL1        0.0297
     26 S          60.0438   88.9534   10.0390 S.O2    1  UNL1       -0.0065
     27 C          59.6172   90.3454   10.3998 C.3     1  UNL1        0.1764
     28 O          60.6694   89.4720    8.7781 O.2     1  UNL1       -0.1727
     29 O          59.4181   88.4349   11.2999 O.2     1  UNL1       -0.1727
@<TRIPOS>BOND
     1    17    16    1
     2    17    18    1
     3    18    19    1
     4    19    20    1
     5    20    21    1
     6    21    22    1
     7    22     1    1
     8     1     2   ar
     9     2     3   ar
    10     3    23    1
    11    23    26    1
    12    26    27    1
    13    26    28    2
    14    26    29    2
    15    23    24    1
    16    24    25    1
    17     3     4   ar
    18     4     5   ar
    19     5     7    1
    20     7     8    2
    21     8     9    1
    22     9    10    2
    23    10    11    1
    24    11    12    2
    25    12    13    1
    26    13    14    2
    27    14    15    1
    28     5     6   ar
    29    22    17    1
    30     6     1   ar
    31    25    23    1
    32    15     7    1
    33    15    11    1
@<TRIPOS>MOLECULE
*****
 29 33 0 0 0
SMALL
GASTEIGER

@<TRIPOS>ATOM
      1 C          61.8358   87.1704   10.5371 C.ar    1  UNL1        0.1347
      2 C          62.2533   88.5689   10.8832 C.ar    1  UNL1        0.0507
      3 C          63.0857   88.8224   12.1050 C.ar    1  UNL1        0.0831
      4 N          63.5006   87.6775   12.9807 N.ar    1  UNL1       -0.2295
      5 C          63.0830   86.2789   12.6346 C.ar    1  UNL1        0.1600
      6 N          62.2506   86.0253   11.4128 N.ar    1  UNL1       -0.2122
      7 C          63.4979   85.1339   13.5103 C.2     1  UNL1        0.0230
      8 C          64.0084   85.3963   14.8961 C.2     1  UNL1       -0.0005
      9 C          64.4233   84.2514   15.7718 C.2     1  UNL1        0.0010
     10 C          64.3277   82.8439   15.2618 C.2     1  UNL1        0.0153
     11 C          63.8172   82.5816   13.8759 C.2     1  UNL1        0.0669
     12 N          63.6126   81.3109   13.1056 N.2     1  UNL1       -0.2478
     13 C          63.0713   81.6706   11.7537 C.2     1  UNL1        0.0946
     14 C          62.9413   83.1635   11.6886 C.2     1  UNL1        0.0046
     15 C          63.4023   83.7266   13.0002 C.3     1  UNL1        0.0888
     16 C          62.8411   85.3288    8.3928 C.3     1  UNL1        0.0241
     17 C          61.5061   85.9961    8.2431 C.3     1  UNL1        0.1038
     18 C          60.6737   85.7425    7.0213 C.3     1  UNL1        0.1618
     19 O          59.3386   86.4098    6.8717 O.3     1  UNL1       -0.3502
     20 C          58.8359   87.3306    7.9437 C.3     1  UNL1        0.1636
     21 C          59.6683   87.5842    9.1656 C.3     1  UNL1        0.1242
     22 N          61.0034   86.9169    9.3153 N.pl3   1  UNL1       -0.2897
     23 C          63.5032   90.2210   12.4511 C.3     1  UNL1        0.1456
     24 C          63.8988   91.6575   12.2781 C.3     1  UNL1        0.0297
     25 C          63.5852   90.8160   11.0766 C.3     1  UNL1        0.0297
     26 S          63.5662   90.1116   13.9458 S.O2    1  UNL1       -0.0065
     27 C          63.6292   90.0022   15.4404 C.3     1  UNL1        0.1764
     28 O          62.0870   89.8663   13.9902 O.2     1  UNL1       -0.1727
     29 O          65.0454   90.3569   13.9014 O.2     1  UNL1       -0.1727
@<TRIPOS>BOND
     1    17    16    1
     2    17    18    1
     3    18    19    1
     4    19    20    1
     5    20    21    1
     6    21    22    1
     7    22     1    1
     8     1     2   ar
     9     2     3   ar
    10     3    23    1
    11    23    26    1
    12    26    27    1
    13    26    28    2
    14    26    29    2
    15    23    24    1
    16    24    25    1
    17     3     4   ar
    18     4     5   ar
    19     5     7    1
    20     7     8    2
    21     8     9    1
    22     9    10    2
    23    10    11    1
    24    11    12    2
    25    12    13    1
    26    13    14    2
    27    14    15    1
    28     5     6   ar
    29    22    17    1
    30     6     1   ar
    31    25    23    1
    32    15     7    1
    33    15    11    1
@<TRIPOS>MOLECULE
*****
 29 33 0 0 0
SMALL
GASTEIGER

@<TRIPOS>ATOM
      1 C          61.9651   86.7002   10.8160 C.ar    1  UNL1        0.1347
      2 C          62.3332   85.4828   11.6112 C.ar    1  UNL1        0.0507
      3 C          63.1617   85.6211   12.8540 C.ar    1  UNL1        0.0831
      4 N          63.6220   86.9767   13.3015 N.ar    1  UNL1       -0.2295
      5 C          63.2539   88.1942   12.5063 C.ar    1  UNL1        0.1600
      6 N          62.4254   88.0559   11.2635 N.ar    1  UNL1       -0.2122
      7 C          63.7142   89.5498   12.9538 C.2     1  UNL1        0.0230
      8 C          64.2489   90.5291   11.9513 C.2     1  UNL1       -0.0005
      9 C          64.7092   91.8847   12.3988 C.2     1  UNL1        0.0010
     10 C          64.6349   92.2611   13.8490 C.2     1  UNL1        0.0153
     11 C          64.1002   91.2818   14.8515 C.2     1  UNL1        0.0669
     12 N          63.9080   91.3697   16.3365 N.2     1  UNL1       -0.2478
     13 C          63.3289   90.0684   16.8068 C.2     1  UNL1        0.0946
     14 C          63.1632   89.1762   15.6124 C.2     1  UNL1        0.0046
     15 C          63.6398   89.9262   14.4039 C.3     1  UNL1        0.0888
     16 C          63.0464   85.2043    8.4510 C.3     1  UNL1        0.0241
     17 C          61.6772   85.8140    8.3907 C.3     1  UNL1        0.1038
     18 C          60.8487   85.6758    7.1480 C.3     1  UNL1        0.1618
     19 O          59.4796   86.2855    7.0877 O.3     1  UNL1       -0.3502
     20 C          58.9388   87.0334    8.2701 C.3     1  UNL1        0.1636
     21 C          59.7673   87.1717    9.5129 C.3     1  UNL1        0.1242
     22 N          61.1366   86.5620    9.5732 N.pl3   1  UNL1       -0.2897
     23 C          63.5299   84.4037   13.6492 C.3     1  UNL1        0.1456
     24 C          63.9072   82.9863   13.9635 C.3     1  UNL1        0.0297
     25 C          63.6841   83.4052   12.5405 C.3     1  UNL1        0.0297
     26 S          63.5035   84.9794   15.0341 S.O2    1  UNL1       -0.0065
     27 C          63.4771   85.5551   16.4189 C.3     1  UNL1        0.1764
     28 O          64.9925   85.1550   14.9894 O.2     1  UNL1       -0.1727
     29 O          62.0145   84.8038   15.0787 O.2     1  UNL1       -0.1727
@<TRIPOS>BOND
     1    17    16    1
     2    17    18    1
     3    18    19    1
     4    19    20    1
     5    20    21    1
     6    21    22    1
     7    22     1    1
     8     1     2   ar
     9     2     3   ar
    10     3    23    1
    11    23    26    1
    12    26    27    1
    13    26    28    2
    14    26    29    2
    15    23    24    1
    16    24    25    1
    17     3     4   ar
    18     4     5   ar
    19     5     7    1
    20     7     8    2
    21     8     9    1
    22     9    10    2
    23    10    11    1
    24    11    12    2
    25    12    13    1
    26    13    14    2
    27    14    15    1
    28     5     6   ar
    29    22    17    1
    30     6     1   ar
    31    25    23    1
    32    15     7    1
    33    15    11    1
@<TRIPOS>MOLECULE
*****
 29 33 0 0 0
SMALL
GASTEIGER

@<TRIPOS>ATOM
      1 C          62.5371   85.5300   12.1493 C.ar    1  UNL1        0.1347
      2 C          61.7040   85.7533   10.9221 C.ar    1  UNL1        0.0507
      3 C          61.5519   87.1359   10.3603 C.ar    1  UNL1        0.0831
      4 N          62.2329   88.2949   11.0255 N.ar    1  UNL1       -0.2295
      5 C          63.0661   88.0716   12.2528 C.ar    1  UNL1        0.1600
      6 N          63.2182   86.6891   12.8147 N.ar    1  UNL1       -0.2122
      7 C          63.7471   89.2307   12.9181 C.2     1  UNL1        0.0230
      8 C          64.1638   89.1313   14.3556 C.2     1  UNL1       -0.0005
      9 C          64.8448   90.2904   15.0209 C.2     1  UNL1        0.0010
     10 C          65.1092   91.5490   14.2487 C.2     1  UNL1        0.0153
     11 C          64.6925   91.6483   12.8112 C.2     1  UNL1        0.0669
     12 N          64.8193   92.7521   11.8034 N.2     1  UNL1       -0.2478
     13 C          64.2167   92.2751   10.5153 C.2     1  UNL1        0.0946
     14 C          63.7174   90.8766   10.7269 C.2     1  UNL1        0.0046
     15 C          64.0115   90.4892   12.1459 C.3     1  UNL1        0.0888
     16 C          63.7890   83.3661   10.4908 C.3     1  UNL1        0.0241
     17 C          63.3152   83.0656   11.8819 C.3     1  UNL1        0.1038
     18 C          63.4673   81.6832   12.4438 C.3     1  UNL1        0.1618
     19 O          62.9935   81.3827   13.8349 O.3     1  UNL1       -0.3502
     20 C          62.3676   82.4645   14.6642 C.3     1  UNL1        0.1636
     21 C          62.2154   83.8471   14.1023 C.3     1  UNL1        0.1242
     22 N          62.6892   84.1476   12.7111 N.pl3   1  UNL1       -0.2897
     23 C          60.7187   87.3592    9.1331 C.3     1  UNL1        0.1456
     24 C          59.7072   87.9678    8.2077 C.3     1  UNL1        0.0297
     25 C          59.9158   88.5463    9.5759 C.3     1  UNL1        0.0297
     26 S          61.2323   86.2495    8.2642 S.O2    1  UNL1       -0.0065
     27 C          61.7458   85.1400    7.3953 C.3     1  UNL1        0.1764
     28 O          62.6401   86.6107    8.6351 O.2     1  UNL1       -0.1727
     29 O          59.8244   85.8884    7.8933 O.2     1  UNL1       -0.1727
@<TRIPOS>BOND
     1    17    16    1
     2    17    18    1
     3    18    19    1
     4    19    20    1
     5    20    21    1
     6    21    22    1
     7    22     1    1
     8     1     2   ar
     9     2     3   ar
    10     3    23    1
    11    23    26    1
    12    26    27    1
    13    26    28    2
    14    26    29    2
    15    23    24    1
    16    24    25    1
    17     3     4   ar
    18     4     5   ar
    19     5     7    1
    20     7     8    2
    21     8     9    1
    22     9    10    2
    23    10    11    1
    24    11    12    2
    25    12    13    1
    26    13    14    2
    27    14    15    1
    28     5     6   ar
    29    22    17    1
    30     6     1   ar
    31    25    23    1
    32    15     7    1
    33    15    11    1
@<TRIPOS>MOLECULE
*****
 29 33 0 0 0
SMALL
GASTEIGER

@<TRIPOS>ATOM
      1 C          62.4726   85.6588   11.8562 C.ar    1  UNL1        0.1347
      2 C          61.5933   85.4989   10.6516 C.ar    1  UNL1        0.0507
      3 C          61.2858   86.6839    9.7849 C.ar    1  UNL1        0.0831
      4 N          61.8575   88.0288   10.1228 N.ar    1  UNL1       -0.2295
      5 C          62.7369   88.1888   11.3275 C.ar    1  UNL1        0.1600
      6 N          63.0445   87.0038   12.1942 N.ar    1  UNL1       -0.2122
      7 C          63.3087   89.5337   11.6654 C.2     1  UNL1        0.0230
      8 C          63.5735   90.5311   10.5768 C.2     1  UNL1       -0.0005
      9 C          64.1452   91.8760   10.9146 C.2     1  UNL1        0.0010
     10 C          64.4522   92.2236   12.3412 C.2     1  UNL1        0.0153
     11 C          64.1874   91.2263   13.4298 C.2     1  UNL1        0.0669
     12 N          64.3872   91.2851   14.9153 N.2     1  UNL1       -0.2478
     13 C          63.9389   89.9765   15.4954 C.2     1  UNL1        0.0946
     14 C          63.4620   89.1089   14.3685 C.2     1  UNL1        0.0046
     15 C          63.6156   89.8813   13.0919 C.3     1  UNL1        0.0888
     16 C          64.0406   83.3548   10.7458 C.3     1  UNL1        0.0241
     17 C          63.5642   83.3218   12.1677 C.3     1  UNL1        0.1038
     18 C          63.8717   82.1369   13.0344 C.3     1  UNL1        0.1618
     19 O          63.3953   82.1039   14.4564 O.3     1  UNL1       -0.3502
     20 C          62.6114   83.2558   15.0117 C.3     1  UNL1        0.1636
     21 C          62.3037   84.4409   14.1450 C.3     1  UNL1        0.1242
     22 N          62.7802   84.4739   12.7229 N.pl3   1  UNL1       -0.2897
     23 C          60.4064   86.5240    8.5802 C.3     1  UNL1        0.1456
     24 C          59.2221   86.6660    7.6707 C.3     1  UNL1        0.0297
     25 C          59.2228   87.3381    9.0118 C.3     1  UNL1        0.0297
     26 S          61.2847   85.6542    7.7303 S.O2    1  UNL1       -0.0065
     27 C          62.1629   84.7846    6.8805 C.3     1  UNL1        0.1764
     28 O          60.0719   85.1039    7.0402 O.2     1  UNL1       -0.1727
     29 O          62.4975   86.2046    8.4205 O.2     1  UNL1       -0.1727
@<TRIPOS>BOND
     1    17    16    1
     2    17    18    1
     3    18    19    1
     4    19    20    1
     5    20    21    1
     6    21    22    1
     7    22     1    1
     8     1     2   ar
     9     2     3   ar
    10     3    23    1
    11    23    26    1
    12    26    27    1
    13    26    28    2
    14    26    29    2
    15    23    24    1
    16    24    25    1
    17     3     4   ar
    18     4     5   ar
    19     5     7    1
    20     7     8    2
    21     8     9    1
    22     9    10    2
    23    10    11    1
    24    11    12    2
    25    12    13    1
    26    13    14    2
    27    14    15    1
    28     5     6   ar
    29    22    17    1
    30     6     1   ar
    31    25    23    1
    32    15     7    1
    33    15    11    1
