@<TRIPOS>MOLECULE
*****
 58 57 0 0 0
SMALL
GASTEIGER

@<TRIPOS>ATOM
      1 C          63.5338   83.7048   12.8939 C.3     1  UNL1        0.1792
      2 C          63.1456   84.2585   11.5550 C.3     1  UNL1        0.0843
      3 C          63.7910   83.7292   10.3087 C.3     1  UNL1        0.0076
      4 C          62.1119   85.3415   11.4624 C.3     1  UNL1        0.2119
      5 O          62.3635   86.5471   10.6061 O.3     1  UNL1       -0.4483
      6 C          62.1017   86.4866    9.1303 C.2     1  UNL1        0.3188
      7 O          63.1257   85.8900    8.2108 O.2     1  UNL1       -0.2500
      8 C          60.8160   87.0227    8.5741 C.3     1  UNL1        0.1261
      9 C          59.8493   86.0984    7.8951 C.3     1  UNL1        0.0142
     10 C          60.4970   88.4833    8.6967 C.3     1  UNL1        0.1257
     11 C          61.2436   89.3339    9.6812 C.3     1  UNL1        0.0301
     12 C          60.4960   90.2802   10.5732 C.3     1  UNL1        0.0026
     13 O          59.4315   89.0932    7.8350 O.3     1  UNL1       -0.3556
     14 C          59.7857   90.1729    6.8557 C.3     1  UNL1        0.1447
     15 C          59.2413   90.1265    5.4588 C.3     1  UNL1        0.0654
     16 C          59.0179   91.3999    4.6982 C.3     1  UNL1        0.1601
     17 O          57.6436   91.9958    4.6205 O.3     1  UNL1       -0.3497
     18 C          56.4655   91.2363    5.1548 C.3     1  UNL1        0.1742
     19 C          60.1688   92.0774    4.0153 C.3     1  UNL1        0.2222
     20 C          59.9122   93.0720    2.9222 C.3     1  UNL1        0.1529
     21 C          59.4908   92.5997    1.5623 C.3     1  UNL1        0.0357
     22 O          60.0770   94.5389    3.1890 O.3     1  UNL1       -0.3807
     23 H          59.8739   95.0389    2.3830 H       1  UNL1        0.2105
     24 O          61.5763   91.7603    4.4255 O.3     1  UNL1       -0.4472
     25 C          62.6745   91.7653    3.4038 C.2     1  UNL1        0.3176
     26 C          63.4972   90.5309    3.1810 C.3     1  UNL1        0.1212
     27 O          62.9500   93.0045    2.6048 O.2     1  UNL1       -0.2501
     28 C          63.2492   84.4885   14.1409 C.3     1  UNL1        0.1001
     29 C          61.9259   84.3434   14.8322 C.3     1  UNL1        0.0116
     30 C          64.2878   85.4173   14.6964 C.2     1  UNL1        0.1775
     31 O          65.7442   85.1206   14.4945 O.2     1  UNL1       -0.2935
     32 C          63.8700   86.6427   15.4539 C.3     1  UNL1        0.1392
     33 C          63.6133   85.8033   16.6703 C.3     1  UNL1        0.0369
     34 O          63.4522   87.8681   16.2114 O.3     1  UNL1       -0.3798
     35 H          63.7899   87.8178   17.1194 H       1  UNL1        0.2108
     36 C          64.1267   87.4821   14.2376 C.3     1  UNL1        0.0367
     37 C          64.2337   88.9730   14.3641 C.3     1  UNL1        0.0350
     38 C          63.6588   89.8592   13.2992 C.3     1  UNL1        0.1450
     39 O          63.9100   91.3375   13.3375 O.3     1  UNL1       -0.3280
     40 C          64.4639   92.0356   12.1309 C.3     1  UNL1        0.2749
     41 O          63.8444   91.8100   10.7836 O.3     1  UNL1       -0.3574
     42 H          64.3189   92.3323   10.1180 H       1  UNL1        0.2131
     43 C          65.6373   92.9593   12.2716 C.3     1  UNL1        0.2388
     44 C          66.3995   93.3944   11.0551 C.3     1  UNL1        0.1032
     45 N          66.6490   94.8527   10.8082 N.3     1  UNL1       -0.2683
     46 C          66.1993   95.8713   11.8135 C.3     1  UNL1        0.0897
     47 C          67.3482   95.2926    9.5562 C.3     1  UNL1        0.0897
     48 C          66.9121   92.3711   10.0854 C.3     1  UNL1        0.0198
     49 C          69.1700   92.2685    8.8043 C.3     1  UNL1        0.0000
     50 C          68.3734   92.0340   10.0534 C.3     1  UNL1        0.0015
     51 O          66.0487   93.4479   13.6288 O.3     1  UNL1       -0.4455
     52 C          67.1721   92.7745   14.3597 C.2     1  UNL1        0.3176
     53 C          67.0653   91.3240   14.7266 C.3     1  UNL1        0.1212
     54 O          68.4024   93.5515   14.7236 O.2     1  UNL1       -0.2501
     55 O          64.2067   82.3673   12.9859 O.3     1  UNL1       -0.4517
     56 C          63.3828   81.1206   13.1156 C.2     1  UNL1        0.3175
     57 C          62.7872   80.4849   11.8945 C.3     1  UNL1        0.1212
     58 O          63.1545   80.5095   14.4664 O.2     1  UNL1       -0.2501
@<TRIPOS>BOND
     1    49    50    1
     2    50    48    1
     3    44    48    1
     4    44    43    1
     5    43    51    1
     6    51    52    1
     7    52    53    1
     8    52    54    2
     9    43    40    1
    10    40    41    1
    11    40    39    1
    12    39    38    1
    13    38    37    1
    14    37    36    1
    15    36    32    1
    16    32    33    1
    17    32    34    1
    18    32    30    1
    19    30    31    2
    20    30    28    1
    21    28    29    1
    22    28     1    1
    23     1    55    1
    24    55    56    1
    25    56    57    1
    26    56    58    2
    27     1     2    1
    28     2     3    1
    29     2     4    1
    30     4     5    1
    31     5     6    1
    32     6     7    2
    33     6     8    1
    34     8     9    1
    35     8    10    1
    36    10    11    1
    37    11    12    1
    38    10    13    1
    39    13    14    1
    40    14    15    1
    41    16    15    1
    42    16    17    1
    43    17    18    1
    44    16    19    1
    45    19    24    1
    46    24    25    1
    47    25    26    1
    48    25    27    2
    49    19    20    1
    50    20    21    1
    51    20    22    1
    52    44    45    1
    53    45    46    1
    54    45    47    1
    55    41    42    1
    56    34    35    1
    57    22    23    1
@<TRIPOS>MOLECULE
*****
 58 57 0 0 0
SMALL
GASTEIGER

@<TRIPOS>ATOM
      1 C          63.1459   83.3462   12.5179 C.3     1  UNL1        0.1792
      2 C          62.8682   84.4241   11.5124 C.3     1  UNL1        0.0843
      3 C          63.3915   84.2967   10.1124 C.3     1  UNL1        0.0076
      4 C          62.0672   85.6294   11.9069 C.3     1  UNL1        0.2119
      5 O          60.8918   86.0532   11.0769 O.3     1  UNL1       -0.4483
      6 C          60.5689   87.5099   10.9226 C.2     1  UNL1        0.3188
      7 O          59.7708   88.2171   11.9776 O.2     1  UNL1       -0.2500
      8 C          61.0441   88.2595    9.7133 C.3     1  UNL1        0.1261
      9 C          62.4089   88.8819    9.7051 C.3     1  UNL1        0.0142
     10 C          60.1546   88.3866    8.5123 C.3     1  UNL1        0.1257
     11 C          59.6631   87.1559    7.8094 C.3     1  UNL1        0.0301
     12 C          60.5422   85.9442    7.7155 C.3     1  UNL1        0.0026
     13 O          59.7566   89.7443    8.0141 O.3     1  UNL1       -0.3556
     14 C          59.0191   89.8799    6.7149 C.3     1  UNL1        0.1447
     15 C          59.7597   90.2657    5.4688 C.3     1  UNL1        0.0654
     16 C          59.4436   91.5595    4.7787 C.3     1  UNL1        0.1601
     17 O          58.1164   92.2225    4.9995 O.3     1  UNL1       -0.3497
     18 C          56.8477   91.4532    4.7789 C.3     1  UNL1        0.1742
     19 C          60.4548   92.1902    3.8678 C.3     1  UNL1        0.2222
     20 C          60.0021   92.9486    2.6554 C.3     1  UNL1        0.1529
     21 C          60.1947   94.4345    2.5851 C.3     1  UNL1        0.0357
     22 O          59.3569   92.2210    1.5132 O.3     1  UNL1       -0.3807
     23 H          59.1263   92.8542    0.8156 H       1  UNL1        0.2105
     24 O          61.9186   92.0624    4.1693 O.3     1  UNL1       -0.4472
     25 C          62.8845   91.7315    3.0704 C.2     1  UNL1        0.3176
     26 C          63.5802   90.4025    3.0584 C.3     1  UNL1        0.1212
     27 O          63.1549   92.7293    1.9837 O.2     1  UNL1       -0.2501
     28 C          62.6436   83.4851   13.9245 C.3     1  UNL1        0.1001
     29 C          61.6931   82.4692   14.4852 C.3     1  UNL1        0.0116
     30 C          63.0918   84.6400   14.7703 C.2     1  UNL1        0.1775
     31 O          62.1065   85.3542   15.6472 O.2     1  UNL1       -0.2935
     32 C          64.5253   85.0806   14.7392 C.3     1  UNL1        0.1392
     33 C          64.9544   83.7162   15.1914 C.3     1  UNL1        0.0369
     34 O          65.9588   85.5212   14.7081 O.3     1  UNL1       -0.3798
     35 H          66.5104   84.8028   14.3610 H       1  UNL1        0.2108
     36 C          64.0961   86.4449   14.2871 C.3     1  UNL1        0.0367
     37 C          64.6926   87.6670   14.9204 C.3     1  UNL1        0.0350
     38 C          64.1894   89.0287   14.5428 C.3     1  UNL1        0.1450
     39 O          65.1544   90.1646   14.3741 O.3     1  UNL1       -0.3280
     40 C          64.7622   91.3688   13.5703 C.3     1  UNL1        0.2749
     41 O          63.3695   91.4859   13.0258 O.3     1  UNL1       -0.3574
     42 H          63.2834   92.3177   12.5342 H       1  UNL1        0.2131
     43 C          65.7627   92.4558   13.3109 C.3     1  UNL1        0.2388
     44 C          66.3197   92.6490   11.9316 C.3     1  UNL1        0.1032
     45 N          67.6878   92.1333   11.5962 N.3     1  UNL1       -0.2683
     46 C          68.6017   91.6650   12.6896 C.3     1  UNL1        0.0897
     47 C          68.1419   92.0859   10.1674 C.3     1  UNL1        0.0897
     48 C          65.5087   93.3579   10.8878 C.3     1  UNL1        0.0198
     49 C          66.1180   95.7869   11.5797 C.3     1  UNL1        0.0000
     50 C          65.8416   94.7712   10.5111 C.3     1  UNL1        0.0015
     51 O          66.2063   93.3496   14.4309 O.3     1  UNL1       -0.4455
     52 C          66.5301   92.7650   15.7737 C.2     1  UNL1        0.3176
     53 C          67.9332   92.3366   16.0867 C.3     1  UNL1        0.1212
     54 O          65.4509   92.6087   16.8036 O.2     1  UNL1       -0.2501
     55 O          63.9260   82.1294   12.1168 O.3     1  UNL1       -0.4517
     56 C          63.2074   80.8963   11.6553 C.2     1  UNL1        0.3175
     57 C          63.0916   80.6001   10.1894 C.3     1  UNL1        0.1212
     58 O          62.6045   79.9593   12.6597 O.2     1  UNL1       -0.2501
@<TRIPOS>BOND
     1    49    50    1
     2    50    48    1
     3    44    48    1
     4    44    43    1
     5    43    51    1
     6    51    52    1
     7    52    53    1
     8    52    54    2
     9    43    40    1
    10    40    41    1
    11    40    39    1
    12    39    38    1
    13    38    37    1
    14    37    36    1
    15    36    32    1
    16    32    33    1
    17    32    34    1
    18    32    30    1
    19    30    31    2
    20    30    28    1
    21    28    29    1
    22    28     1    1
    23     1    55    1
    24    55    56    1
    25    56    57    1
    26    56    58    2
    27     1     2    1
    28     2     3    1
    29     2     4    1
    30     4     5    1
    31     5     6    1
    32     6     7    2
    33     6     8    1
    34     8     9    1
    35     8    10    1
    36    10    11    1
    37    11    12    1
    38    10    13    1
    39    13    14    1
    40    14    15    1
    41    16    15    1
    42    16    17    1
    43    17    18    1
    44    16    19    1
    45    19    24    1
    46    24    25    1
    47    25    26    1
    48    25    27    2
    49    19    20    1
    50    20    21    1
    51    20    22    1
    52    44    45    1
    53    45    46    1
    54    45    47    1
    55    41    42    1
    56    34    35    1
    57    22    23    1
@<TRIPOS>MOLECULE
*****
 58 57 0 0 0
SMALL
GASTEIGER

@<TRIPOS>ATOM
      1 C          62.5620   85.8722   11.4441 C.3     1  UNL1        0.1792
      2 C          62.2164   85.7235    9.9921 C.3     1  UNL1        0.0843
      3 C          63.1895   85.0761    9.0519 C.3     1  UNL1        0.0076
      4 C          60.8975   86.2221    9.4802 C.3     1  UNL1        0.2119
      5 O          60.8260   86.9381    8.1639 O.3     1  UNL1       -0.4483
      6 C          59.5785   87.6765    7.7786 C.2     1  UNL1        0.3188
      7 O          58.2927   86.9280    7.5875 O.2     1  UNL1       -0.2500
      8 C          59.6169   89.1634    7.5845 C.3     1  UNL1        0.1261
      9 C          60.0731   90.0541    8.7018 C.3     1  UNL1        0.0142
     10 C          59.1989   89.7594    6.2730 C.3     1  UNL1        0.1257
     11 C          57.7533   90.0659    6.0152 C.3     1  UNL1        0.0301
     12 C          57.3771   91.2119    5.1234 C.3     1  UNL1        0.0026
     13 O          60.2265   90.0491    5.2194 O.3     1  UNL1       -0.3556
     14 C          60.6874   91.4577    4.9883 C.3     1  UNL1        0.1447
     15 C          60.5515   92.0779    3.6293 C.3     1  UNL1        0.0654
     16 C          61.7767   92.4689    2.8574 C.3     1  UNL1        0.1601
     17 O          63.1332   92.0487    3.3404 O.3     1  UNL1       -0.3497
     18 C          63.5594   90.6150    3.2257 C.3     1  UNL1        0.1742
     19 C          61.6455   93.2801    1.6025 C.3     1  UNL1        0.2222
     20 C          60.5059   93.0258    0.6609 C.3     1  UNL1        0.1529
     21 C          59.4215   94.0499    0.5021 C.3     1  UNL1        0.0357
     22 O          60.4508   91.7475   -0.1220 O.3     1  UNL1       -0.3807
     23 H          59.6560   91.7429   -0.6781 H       1  UNL1        0.2105
     24 O          62.6538   94.3454    1.2892 O.3     1  UNL1       -0.4472
     25 C          63.7381   94.0805    0.2871 C.2     1  UNL1        0.3176
     26 C          64.9597   93.3089    0.6901 C.3     1  UNL1        0.1212
     27 O          63.6008   94.5873   -1.1180 O.2     1  UNL1       -0.2501
     28 C          62.7037   84.6554   12.3098 C.3     1  UNL1        0.1001
     29 C          62.6328   83.2875   11.6983 C.3     1  UNL1        0.0116
     30 C          62.9162   84.8065   13.7869 C.2     1  UNL1        0.1775
     31 O          61.7422   84.7793   14.7201 O.2     1  UNL1       -0.2935
     32 C          64.3027   84.9847   14.3308 C.3     1  UNL1        0.1392
     33 C          64.6996   83.6583   13.7537 C.3     1  UNL1        0.0369
     34 O          65.6892   85.1629   14.8747 O.3     1  UNL1       -0.3798
     35 H          66.3347   84.8387   14.2273 H       1  UNL1        0.2108
     36 C          63.9058   86.3111   14.9079 C.3     1  UNL1        0.0367
     37 C          64.8447   87.4779   14.8214 C.3     1  UNL1        0.0350
     38 C          64.3048   88.8605   14.6047 C.3     1  UNL1        0.1450
     39 O          65.2463   90.0075   14.3864 O.3     1  UNL1       -0.3280
     40 C          64.7571   91.2652   13.7314 C.3     1  UNL1        0.2749
     41 O          63.3099   91.4044   13.3621 O.3     1  UNL1       -0.3574
     42 H          63.1630   92.2708   12.9514 H       1  UNL1        0.2131
     43 C          65.7149   92.3836   13.4458 C.3     1  UNL1        0.2388
     44 C          66.2638   92.5660   12.0617 C.3     1  UNL1        0.1032
     45 N          65.4246   93.2157   11.0017 N.3     1  UNL1       -0.2683
     46 C          65.6589   94.6512   10.6348 C.3     1  UNL1        0.0897
     47 C          64.3511   92.4301   10.3087 C.3     1  UNL1        0.0897
     48 C          67.6517   92.0986   11.7377 C.3     1  UNL1        0.0198
     49 C          68.7895   92.9244    9.5528 C.3     1  UNL1        0.0000
     50 C          68.0496   91.8623   10.3108 C.3     1  UNL1        0.0015
     51 O          66.1240   93.3197   14.5441 O.3     1  UNL1       -0.4455
     52 C          66.5643   92.7735   15.8699 C.2     1  UNL1        0.3176
     53 C          67.9777   92.3072   16.0569 C.3     1  UNL1        0.1212
     54 O          65.5913   92.6936   17.0087 O.2     1  UNL1       -0.2501
     55 O          62.7661   87.2377   12.0304 O.3     1  UNL1       -0.4517
     56 C          62.0630   88.4219   11.4361 C.2     1  UNL1        0.3175
     57 C          62.7470   89.2543   10.3925 C.3     1  UNL1        0.1212
     58 O          60.6757   88.7737   11.8854 O.2     1  UNL1       -0.2501
@<TRIPOS>BOND
     1    49    50    1
     2    50    48    1
     3    44    48    1
     4    44    43    1
     5    43    51    1
     6    51    52    1
     7    52    53    1
     8    52    54    2
     9    43    40    1
    10    40    41    1
    11    40    39    1
    12    39    38    1
    13    38    37    1
    14    37    36    1
    15    36    32    1
    16    32    33    1
    17    32    34    1
    18    32    30    1
    19    30    31    2
    20    30    28    1
    21    28    29    1
    22    28     1    1
    23     1    55    1
    24    55    56    1
    25    56    57    1
    26    56    58    2
    27     1     2    1
    28     2     3    1
    29     2     4    1
    30     4     5    1
    31     5     6    1
    32     6     7    2
    33     6     8    1
    34     8     9    1
    35     8    10    1
    36    10    11    1
    37    11    12    1
    38    10    13    1
    39    13    14    1
    40    14    15    1
    41    16    15    1
    42    16    17    1
    43    17    18    1
    44    16    19    1
    45    19    24    1
    46    24    25    1
    47    25    26    1
    48    25    27    2
    49    19    20    1
    50    20    21    1
    51    20    22    1
    52    44    45    1
    53    45    46    1
    54    45    47    1
    55    41    42    1
    56    34    35    1
    57    22    23    1
@<TRIPOS>MOLECULE
*****
 58 57 0 0 0
SMALL
GASTEIGER

@<TRIPOS>ATOM
      1 C          61.1752   87.4532   10.6609 C.3     1  UNL1        0.1792
      2 C          61.9560   86.2240   10.3009 C.3     1  UNL1        0.0843
      3 C          62.4899   86.0556    8.9092 C.3     1  UNL1        0.0076
      4 C          62.2028   85.1634   11.3324 C.3     1  UNL1        0.2119
      5 O          62.3374   85.5401   12.7781 O.3     1  UNL1       -0.4483
      6 C          63.1597   84.6904   13.7011 C.2     1  UNL1        0.3188
      7 O          62.9627   83.2035   13.7267 O.2     1  UNL1       -0.2500
      8 C          64.1788   85.3275   14.5986 C.3     1  UNL1        0.1261
      9 C          65.6200   84.9229   14.5026 C.3     1  UNL1        0.0142
     10 C          63.7567   86.3691   15.5919 C.3     1  UNL1        0.1257
     11 C          63.2382   85.9558   16.9375 C.3     1  UNL1        0.0301
     12 C          62.6731   86.9844   17.8717 C.3     1  UNL1        0.0026
     13 O          63.8531   87.8240   15.2398 O.3     1  UNL1       -0.3556
     14 C          64.2386   88.2353   13.8497 C.3     1  UNL1        0.1447
     15 C          63.8678   89.5965   13.3403 C.3     1  UNL1        0.0654
     16 C          64.2900   90.8210   14.0968 C.3     1  UNL1        0.1601
     17 O          63.4550   91.3229   15.2373 O.3     1  UNL1       -0.3497
     18 C          63.5222   90.6423   16.5724 C.3     1  UNL1        0.1742
     19 C          65.5471   91.5437   13.7127 C.3     1  UNL1        0.2222
     20 C          65.5410   92.4945   12.5526 C.3     1  UNL1        0.1529
     21 C          64.8387   92.1214   11.2808 C.3     1  UNL1        0.0357
     22 O          66.2372   93.8184   12.6643 O.3     1  UNL1       -0.3807
     23 H          66.1379   94.3072   11.8323 H       1  UNL1        0.2105
     24 O          66.8102   91.3155   14.4887 O.3     1  UNL1       -0.4472
     25 C          67.2560   92.3212   15.5085 C.2     1  UNL1        0.3176
     26 C          68.6457   92.8829   15.4502 C.3     1  UNL1        0.1212
     27 O          66.3123   92.7651   16.5865 O.2     1  UNL1       -0.2501
     28 C          61.3335   88.7061    9.8515 C.3     1  UNL1        0.1001
     29 C          62.6787   89.3598    9.7365 C.3     1  UNL1        0.0116
     30 C          60.1466   89.3054    9.1571 C.2     1  UNL1        0.1775
     31 O          59.5159   90.5558    9.6943 O.2     1  UNL1       -0.2935
     32 C          59.5904   88.6542    7.9256 C.3     1  UNL1        0.1392
     33 C          59.1527   87.4770    8.7458 C.3     1  UNL1        0.0369
     34 O          59.0343   88.0030    6.6941 O.3     1  UNL1       -0.3798
     35 H          58.1963   87.5649    6.9104 H       1  UNL1        0.2108
     36 C          60.0282   89.8314    7.1055 C.3     1  UNL1        0.0367
     37 C          59.3963   90.0917    5.7701 C.3     1  UNL1        0.0350
     38 C          59.3678   91.4839    5.2125 C.3     1  UNL1        0.1450
     39 O          60.4460   91.9381    4.2739 O.3     1  UNL1       -0.3280
     40 C          60.0842   92.4899    2.9268 C.3     1  UNL1        0.2749
     41 O          58.6450   92.5744    2.5128 O.3     1  UNL1       -0.3574
     42 H          58.5867   92.9514    1.6209 H       1  UNL1        0.2131
     43 C          61.1617   92.9573    1.9938 C.3     1  UNL1        0.2388
     44 C          60.8012   93.4903    0.6387 C.3     1  UNL1        0.1032
     45 N          59.8510   94.6444    0.5152 N.3     1  UNL1       -0.2683
     46 C          58.6777   94.5537   -0.4150 C.3     1  UNL1        0.0897
     47 C          60.0741   95.8892    1.3219 C.3     1  UNL1        0.0897
     48 C          61.3909   92.8693   -0.5927 C.3     1  UNL1        0.0198
     49 C          63.1160   93.1962   -2.5077 C.3     1  UNL1        0.0000
     50 C          62.0142   93.7371   -1.6455 C.3     1  UNL1        0.0015
     51 O          62.5996   92.8918    2.4157 O.3     1  UNL1       -0.4455
     52 C          63.6067   93.8126    1.7929 C.2     1  UNL1        0.3176
     53 C          64.7476   93.2494    0.9985 C.3     1  UNL1        0.1212
     54 O          63.4728   95.2967    1.9646 O.2     1  UNL1       -0.2501
     55 O          60.2362   87.4294   11.8304 O.3     1  UNL1       -0.4517
     56 C          59.7734   88.7161   12.4469 C.2     1  UNL1        0.3175
     57 C          58.3097   88.9574   12.6692 C.3     1  UNL1        0.1212
     58 O          60.7742   89.7616   12.8410 O.2     1  UNL1       -0.2501
@<TRIPOS>BOND
     1    49    50    1
     2    50    48    1
     3    44    48    1
     4    44    43    1
     5    43    51    1
     6    51    52    1
     7    52    53    1
     8    52    54    2
     9    43    40    1
    10    40    41    1
    11    40    39    1
    12    39    38    1
    13    38    37    1
    14    37    36    1
    15    36    32    1
    16    32    33    1
    17    32    34    1
    18    32    30    1
    19    30    31    2
    20    30    28    1
    21    28    29    1
    22    28     1    1
    23     1    55    1
    24    55    56    1
    25    56    57    1
    26    56    58    2
    27     1     2    1
    28     2     3    1
    29     2     4    1
    30     4     5    1
    31     5     6    1
    32     6     7    2
    33     6     8    1
    34     8     9    1
    35     8    10    1
    36    10    11    1
    37    11    12    1
    38    10    13    1
    39    13    14    1
    40    14    15    1
    41    16    15    1
    42    16    17    1
    43    17    18    1
    44    16    19    1
    45    19    24    1
    46    24    25    1
    47    25    26    1
    48    25    27    2
    49    19    20    1
    50    20    21    1
    51    20    22    1
    52    44    45    1
    53    45    46    1
    54    45    47    1
    55    41    42    1
    56    34    35    1
    57    22    23    1
@<TRIPOS>MOLECULE
*****
 58 57 0 0 0
SMALL
GASTEIGER

@<TRIPOS>ATOM
      1 C          61.2041   87.5444   10.2707 C.3     1  UNL1        0.1792
      2 C          61.8435   86.3349    9.6557 C.3     1  UNL1        0.0843
      3 C          61.5318   85.9616    8.2367 C.3     1  UNL1        0.0076
      4 C          62.7945   85.4987   10.4597 C.3     1  UNL1        0.2119
      5 O          62.2992   84.7386   11.6543 O.3     1  UNL1       -0.4483
      6 C          63.2775   84.1079   12.6004 C.2     1  UNL1        0.3188
      7 O          64.4414   83.3272   12.0654 O.2     1  UNL1       -0.2500
      8 C          63.0921   84.2579   14.0813 C.3     1  UNL1        0.1261
      9 C          62.3999   83.1811   14.8633 C.3     1  UNL1        0.0142
     10 C          63.5989   85.4845   14.7801 C.3     1  UNL1        0.1257
     11 C          63.8356   85.4601   16.2612 C.3     1  UNL1        0.0301
     12 C          62.8004   86.0127   17.1954 C.3     1  UNL1        0.0026
     13 O          63.8690   86.7357   13.9980 O.3     1  UNL1       -0.3556
     14 C          64.4777   87.9273   14.6760 C.3     1  UNL1        0.1447
     15 C          64.3942   89.2799   14.0330 C.3     1  UNL1        0.0654
     16 C          64.4060   90.5161   14.8824 C.3     1  UNL1        0.1601
     17 O          63.3205   90.7425   15.8924 O.3     1  UNL1       -0.3497
     18 C          63.0240   89.6933   16.9228 C.3     1  UNL1        0.1742
     19 C          65.5034   91.5261   14.7217 C.3     1  UNL1        0.2222
     20 C          65.8600   92.4338   15.8613 C.3     1  UNL1        0.1529
     21 C          67.2604   92.9542   15.9957 C.3     1  UNL1        0.0357
     22 O          64.8163   92.8212   16.8666 O.3     1  UNL1       -0.3807
     23 H          65.2098   93.4074   17.5317 H       1  UNL1        0.2105
     24 O          66.2441   91.6282   13.4214 O.3     1  UNL1       -0.4472
     25 C          65.8454   92.6620   12.4103 C.2     1  UNL1        0.3176
     26 C          65.0697   92.2589   11.1913 C.3     1  UNL1        0.1212
     27 O          66.2224   94.0989   12.6181 O.2     1  UNL1       -0.2501
     28 C          61.2937   88.8731    9.5802 C.3     1  UNL1        0.1001
     29 C          62.6083   89.5914    9.5038 C.3     1  UNL1        0.0116
     30 C          60.0688   89.4833    8.9661 C.2     1  UNL1        0.1775
     31 O          59.4244   90.6771    9.6059 O.2     1  UNL1       -0.2935
     32 C          59.4883   88.8996    7.7122 C.3     1  UNL1        0.1392
     33 C          58.9435   87.7461    8.5013 C.3     1  UNL1        0.0369
     34 O          58.9077   88.3159    6.4582 O.3     1  UNL1       -0.3798
     35 H          58.0339   87.9412    6.6504 H       1  UNL1        0.2108
     36 C          60.0331   90.0531    6.9230 C.3     1  UNL1        0.0367
     37 C          59.3353   90.5033    5.6738 C.3     1  UNL1        0.0350
     38 C          59.8461   91.6932    4.9168 C.3     1  UNL1        0.1450
     39 O          59.3603   91.9606    3.5231 O.3     1  UNL1       -0.3280
     40 C          60.0193   93.0191    2.6892 C.3     1  UNL1        0.2749
     41 O          59.9395   94.4584    3.1039 O.3     1  UNL1       -0.3574
     42 H          60.4143   95.0071    2.4603 H       1  UNL1        0.2131
     43 C          60.7582   92.6382    1.4406 C.3     1  UNL1        0.2388
     44 C          60.4225   93.3025    0.1383 C.3     1  UNL1        0.1032
     45 N          59.1531   94.0902    0.0035 N.3     1  UNL1       -0.2683
     46 C          59.1733   95.5804    0.1741 C.3     1  UNL1        0.0897
     47 C          57.8634   93.3877   -0.3019 C.3     1  UNL1        0.0897
     48 C          61.3561   93.1791   -1.0292 C.3     1  UNL1        0.0198
     49 C          62.4304   95.4333   -1.7469 C.3     1  UNL1        0.0000
     50 C          62.5567   94.0731   -1.1272 C.3     1  UNL1        0.0015
     51 O          61.8328   91.5931    1.4943 O.3     1  UNL1       -0.4455
     52 C          63.0628   91.8239    2.3213 C.2     1  UNL1        0.3176
     53 C          63.4344   90.8507    3.4006 C.3     1  UNL1        0.1212
     54 O          63.9212   93.0278    2.0689 O.2     1  UNL1       -0.2501
     55 O          60.4752   87.4254   11.5763 O.3     1  UNL1       -0.4517
     56 C          60.0453   88.6607   12.3106 C.2     1  UNL1        0.3175
     57 C          58.5871   88.9282   12.5390 C.3     1  UNL1        0.1212
     58 O          61.0736   89.6285   12.8165 O.2     1  UNL1       -0.2501
@<TRIPOS>BOND
     1    49    50    1
     2    50    48    1
     3    44    48    1
     4    44    43    1
     5    43    51    1
     6    51    52    1
     7    52    53    1
     8    52    54    2
     9    43    40    1
    10    40    41    1
    11    40    39    1
    12    39    38    1
    13    38    37    1
    14    37    36    1
    15    36    32    1
    16    32    33    1
    17    32    34    1
    18    32    30    1
    19    30    31    2
    20    30    28    1
    21    28    29    1
    22    28     1    1
    23     1    55    1
    24    55    56    1
    25    56    57    1
    26    56    58    2
    27     1     2    1
    28     2     3    1
    29     2     4    1
    30     4     5    1
    31     5     6    1
    32     6     7    2
    33     6     8    1
    34     8     9    1
    35     8    10    1
    36    10    11    1
    37    11    12    1
    38    10    13    1
    39    13    14    1
    40    14    15    1
    41    16    15    1
    42    16    17    1
    43    17    18    1
    44    16    19    1
    45    19    24    1
    46    24    25    1
    47    25    26    1
    48    25    27    2
    49    19    20    1
    50    20    21    1
    51    20    22    1
    52    44    45    1
    53    45    46    1
    54    45    47    1
    55    41    42    1
    56    34    35    1
    57    22    23    1
@<TRIPOS>MOLECULE
*****
 58 57 0 0 0
SMALL
GASTEIGER

@<TRIPOS>ATOM
      1 C          62.6347   85.9238   11.4018 C.3     1  UNL1        0.1792
      2 C          62.2721   85.7518    9.9565 C.3     1  UNL1        0.0843
      3 C          63.2372   85.0957    9.0140 C.3     1  UNL1        0.0076
      4 C          60.9443   86.2357    9.4536 C.3     1  UNL1        0.2119
      5 O          60.8664   87.0208    8.1777 O.3     1  UNL1       -0.4483
      6 C          59.6018   87.7425    7.8173 C.2     1  UNL1        0.3188
      7 O          58.3374   86.9696    7.5849 O.2     1  UNL1       -0.2500
      8 C          59.6016   89.2369    7.6891 C.3     1  UNL1        0.1261
      9 C          59.9706   90.0907    8.8659 C.3     1  UNL1        0.0142
     10 C          59.2324   89.8777    6.3841 C.3     1  UNL1        0.1257
     11 C          57.8046   89.8737    5.9240 C.3     1  UNL1        0.0301
     12 C          57.2230   91.0936    5.2733 C.3     1  UNL1        0.0026
     13 O          60.2908   90.5224    5.5391 O.3     1  UNL1       -0.3556
     14 C          59.9233   91.1533    4.2288 C.3     1  UNL1        0.1447
     15 C          60.0920   92.6311    4.0345 C.3     1  UNL1        0.0654
     16 C          60.5811   93.1637    2.7203 C.3     1  UNL1        0.1601
     17 O          60.0005   94.4286    2.1609 O.3     1  UNL1       -0.3497
     18 C          60.9026   95.5690    1.7921 C.3     1  UNL1        0.1742
     19 C          61.6508   92.4315    1.9655 C.3     1  UNL1        0.2222
     20 C          63.0244   92.2963    2.5528 C.3     1  UNL1        0.1529
     21 C          63.4536   90.9960    3.1651 C.3     1  UNL1        0.0357
     22 O          63.9688   93.4615    2.5279 O.3     1  UNL1       -0.3807
     23 H          64.8069   93.2073    2.9448 H       1  UNL1        0.2105
     24 O          61.3469   91.8345    0.6235 O.3     1  UNL1       -0.4472
     25 C          60.6602   92.6579   -0.4256 C.2     1  UNL1        0.3176
     26 C          61.4638   93.5550   -1.3198 C.3     1  UNL1        0.1212
     27 O          59.1701   92.5842   -0.5804 O.2     1  UNL1       -0.2501
     28 C          62.8458   84.7194   12.2706 C.3     1  UNL1        0.1001
     29 C          62.8792   83.3501   11.6591 C.3     1  UNL1        0.0116
     30 C          63.0237   84.8843   13.7508 C.2     1  UNL1        0.1775
     31 O          61.8321   84.8280   14.6602 O.2     1  UNL1       -0.2935
     32 C          64.3930   85.1054   14.3217 C.3     1  UNL1        0.1392
     33 C          64.4857   83.6480   14.6640 C.3     1  UNL1        0.0369
     34 O          65.7624   85.3266   14.8926 O.3     1  UNL1       -0.3798
     35 H          66.3355   84.5804   14.6566 H       1  UNL1        0.2108
     36 C          64.3003   86.5629   13.9794 C.3     1  UNL1        0.0367
     37 C          64.4515   87.5971   15.0554 C.3     1  UNL1        0.0350
     38 C          64.0707   89.0225   14.7845 C.3     1  UNL1        0.1450
     39 O          65.0805   89.9728   14.2127 O.3     1  UNL1       -0.3280
     40 C          64.6331   91.2784   13.6251 C.3     1  UNL1        0.2749
     41 O          63.1870   91.4938   13.2903 O.3     1  UNL1       -0.3574
     42 H          63.0693   92.3835   12.9222 H       1  UNL1        0.2131
     43 C          65.6319   92.3686   13.3722 C.3     1  UNL1        0.2388
     44 C          66.2049   92.5570   11.9988 C.3     1  UNL1        0.1032
     45 N          67.5952   92.0832   11.6948 N.3     1  UNL1       -0.2683
     46 C          68.0830   92.0503   10.2766 C.3     1  UNL1        0.0897
     47 C          68.4978   91.6423   12.8087 C.3     1  UNL1        0.0897
     48 C          65.3876   93.2193   10.9296 C.3     1  UNL1        0.0198
     49 C          66.0334   95.6990   11.3588 C.3     1  UNL1        0.0000
     50 C          65.7880   94.5668   10.4060 C.3     1  UNL1        0.0015
     51 O          66.0577   93.2703   14.4928 O.3     1  UNL1       -0.4455
     52 C          66.3233   92.7003   15.8545 C.2     1  UNL1        0.3176
     53 C          67.7234   92.3453   16.2590 C.3     1  UNL1        0.1212
     54 O          65.1887   92.4853   16.8119 O.2     1  UNL1       -0.2501
     55 O          62.7862   87.3003   11.9783 O.3     1  UNL1       -0.4517
     56 C          62.0086   88.4453   11.4001 C.2     1  UNL1        0.3175
     57 C          62.6720   89.3994   10.4516 C.3     1  UNL1        0.1212
     58 O          60.5676   88.6364   11.7706 O.2     1  UNL1       -0.2501
@<TRIPOS>BOND
     1    49    50    1
     2    50    48    1
     3    44    48    1
     4    44    43    1
     5    43    51    1
     6    51    52    1
     7    52    53    1
     8    52    54    2
     9    43    40    1
    10    40    41    1
    11    40    39    1
    12    39    38    1
    13    38    37    1
    14    37    36    1
    15    36    32    1
    16    32    33    1
    17    32    34    1
    18    32    30    1
    19    30    31    2
    20    30    28    1
    21    28    29    1
    22    28     1    1
    23     1    55    1
    24    55    56    1
    25    56    57    1
    26    56    58    2
    27     1     2    1
    28     2     3    1
    29     2     4    1
    30     4     5    1
    31     5     6    1
    32     6     7    2
    33     6     8    1
    34     8     9    1
    35     8    10    1
    36    10    11    1
    37    11    12    1
    38    10    13    1
    39    13    14    1
    40    14    15    1
    41    16    15    1
    42    16    17    1
    43    17    18    1
    44    16    19    1
    45    19    24    1
    46    24    25    1
    47    25    26    1
    48    25    27    2
    49    19    20    1
    50    20    21    1
    51    20    22    1
    52    44    45    1
    53    45    46    1
    54    45    47    1
    55    41    42    1
    56    34    35    1
    57    22    23    1
@<TRIPOS>MOLECULE
*****
 58 57 0 0 0
SMALL
GASTEIGER

@<TRIPOS>ATOM
      1 C          61.1771   87.4773   10.5961 C.3     1  UNL1        0.1792
      2 C          61.9125   86.2409   10.1716 C.3     1  UNL1        0.0843
      3 C          62.2637   86.0356    8.7278 C.3     1  UNL1        0.0076
      4 C          62.2968   85.2097   11.1909 C.3     1  UNL1        0.2119
      5 O          62.3429   85.5736   12.6454 O.3     1  UNL1       -0.4483
      6 C          62.9416   84.6216   13.6381 C.2     1  UNL1        0.3188
      7 O          62.2974   83.2890   13.8819 O.2     1  UNL1       -0.2500
      8 C          64.1843   85.0021   14.3868 C.3     1  UNL1        0.1261
      9 C          65.4545   84.2337   14.1717 C.3     1  UNL1        0.0142
     10 C          64.1570   86.1511   15.3507 C.3     1  UNL1        0.1257
     11 C          63.6573   85.9445   16.7499 C.3     1  UNL1        0.0301
     12 C          62.2093   86.1700   17.0701 C.3     1  UNL1        0.0026
     13 O          64.6293   87.5066   14.9155 O.3     1  UNL1       -0.3556
     14 C          63.8353   88.2915   13.9136 C.3     1  UNL1        0.1447
     15 C          64.2411   89.6934   13.5674 C.3     1  UNL1        0.0654
     16 C          64.3458   90.7317   14.6449 C.3     1  UNL1        0.1601
     17 O          63.2806   90.8313   15.6963 O.3     1  UNL1       -0.3497
     18 C          63.1558   89.7624   16.7412 C.3     1  UNL1        0.1742
     19 C          65.5155   91.6703   14.6710 C.3     1  UNL1        0.2222
     20 C          65.8693   92.3928   15.9370 C.3     1  UNL1        0.1529
     21 C          67.3002   92.7331   16.2315 C.3     1  UNL1        0.0357
     22 O          64.7922   92.7749   16.9085 O.3     1  UNL1       -0.3807
     23 H          65.1882   93.2314   17.6672 H       1  UNL1        0.2105
     24 O          66.3315   91.8864   13.4311 O.3     1  UNL1       -0.4472
     25 C          66.0363   93.0504   12.5323 C.2     1  UNL1        0.3176
     26 C          65.5533   92.8133   11.1321 C.3     1  UNL1        0.1212
     27 O          66.2240   94.4516   13.0337 O.2     1  UNL1       -0.2501
     28 C          61.3200   88.7438    9.8051 C.3     1  UNL1        0.1001
     29 C          62.6584   89.4122    9.6949 C.3     1  UNL1        0.0116
     30 C          60.1247   89.3419    9.1245 C.2     1  UNL1        0.1775
     31 O          59.4861   90.5799    9.6810 O.2     1  UNL1       -0.2935
     32 C          59.5679   88.7021    7.8873 C.3     1  UNL1        0.1392
     33 C          59.0318   87.5709    8.7136 C.3     1  UNL1        0.0369
     34 O          59.0111   88.0623    6.6501 O.3     1  UNL1       -0.3798
     35 H          58.1409   87.6814    6.8467 H       1  UNL1        0.2108
     36 C          60.1040   89.8334    7.0610 C.3     1  UNL1        0.0367
     37 C          59.5198   90.1170    5.7088 C.3     1  UNL1        0.0350
     38 C          59.4270   91.5297    5.2131 C.3     1  UNL1        0.1450
     39 O          60.3316   91.9993    4.1126 O.3     1  UNL1       -0.3280
     40 C          59.7530   92.4181    2.7935 C.3     1  UNL1        0.2749
     41 O          58.2743   92.6298    2.6564 O.3     1  UNL1       -0.3574
     42 H          58.0688   92.8957    1.7465 H       1  UNL1        0.2131
     43 C          60.6530   92.6253    1.6116 C.3     1  UNL1        0.2388
     44 C          61.9119   93.4275    1.7590 C.3     1  UNL1        0.1032
     45 N          61.8713   94.9200    1.6157 N.3     1  UNL1       -0.2683
     46 C          60.5910   95.6624    1.8607 C.3     1  UNL1        0.0897
     47 C          63.1108   95.6702    1.2274 C.3     1  UNL1        0.0897
     48 C          63.2114   92.7370    2.0498 C.3     1  UNL1        0.0198
     49 C          63.6357   90.4381    3.1834 C.3     1  UNL1        0.0000
     50 C          63.3591   91.9084    3.2914 C.3     1  UNL1        0.0015
     51 O          60.2941   92.0303    0.2822 O.3     1  UNL1       -0.4455
     52 C          59.7200   92.8987   -0.7977 C.2     1  UNL1        0.3176
     53 C          58.3176   92.6696   -1.2780 C.3     1  UNL1        0.1212
     54 O          60.5483   93.9961   -1.3973 O.2     1  UNL1       -0.2501
     55 O          60.2986   87.4474   11.8117 O.3     1  UNL1       -0.4517
     56 C          59.8440   88.7311   12.4403 C.2     1  UNL1        0.3175
     57 C          58.3801   88.9933   12.6359 C.3     1  UNL1        0.1212
     58 O          60.8533   89.7528   12.8734 O.2     1  UNL1       -0.2501
@<TRIPOS>BOND
     1    49    50    1
     2    50    48    1
     3    44    48    1
     4    44    43    1
     5    43    51    1
     6    51    52    1
     7    52    53    1
     8    52    54    2
     9    43    40    1
    10    40    41    1
    11    40    39    1
    12    39    38    1
    13    38    37    1
    14    37    36    1
    15    36    32    1
    16    32    33    1
    17    32    34    1
    18    32    30    1
    19    30    31    2
    20    30    28    1
    21    28    29    1
    22    28     1    1
    23     1    55    1
    24    55    56    1
    25    56    57    1
    26    56    58    2
    27     1     2    1
    28     2     3    1
    29     2     4    1
    30     4     5    1
    31     5     6    1
    32     6     7    2
    33     6     8    1
    34     8     9    1
    35     8    10    1
    36    10    11    1
    37    11    12    1
    38    10    13    1
    39    13    14    1
    40    14    15    1
    41    16    15    1
    42    16    17    1
    43    17    18    1
    44    16    19    1
    45    19    24    1
    46    24    25    1
    47    25    26    1
    48    25    27    2
    49    19    20    1
    50    20    21    1
    51    20    22    1
    52    44    45    1
    53    45    46    1
    54    45    47    1
    55    41    42    1
    56    34    35    1
    57    22    23    1
@<TRIPOS>MOLECULE
*****
 58 57 0 0 0
SMALL
GASTEIGER

@<TRIPOS>ATOM
      1 C          63.1877   84.3793   12.6237 C.3     1  UNL1        0.1792
      2 C          62.5143   85.3333   11.6822 C.3     1  UNL1        0.0843
      3 C          62.7622   85.2311   10.2064 C.3     1  UNL1        0.0076
      4 C          61.5929   86.3895   12.2166 C.3     1  UNL1        0.2119
      5 O          60.5124   86.9542   11.3426 O.3     1  UNL1       -0.4483
      6 C          60.4656   88.4276   11.0652 C.2     1  UNL1        0.3188
      7 O          59.9638   89.3730   12.1162 O.2     1  UNL1       -0.2500
      8 C          60.9206   88.9555    9.7370 C.3     1  UNL1        0.1261
      9 C          62.2583   89.6228    9.6135 C.3     1  UNL1        0.0142
     10 C          60.0379   88.8161    8.5323 C.3     1  UNL1        0.1257
     11 C          59.3972   87.4961    8.2206 C.3     1  UNL1        0.0301
     12 C          60.2356   86.3524    7.7315 C.3     1  UNL1        0.0026
     13 O          59.7957   89.9968    7.6393 O.3     1  UNL1       -0.3556
     14 C          59.5836   89.7935    6.1683 C.3     1  UNL1        0.1447
     15 C          60.3241   90.6440    5.1792 C.3     1  UNL1        0.0654
     16 C          59.6756   91.8719    4.6122 C.3     1  UNL1        0.1601
     17 O          58.3432   92.3243    5.1318 O.3     1  UNL1       -0.3497
     18 C          57.0919   91.6150    4.7061 C.3     1  UNL1        0.1742
     19 C          60.3595   92.6475    3.5255 C.3     1  UNL1        0.2222
     20 C          61.5862   92.0913    2.8654 C.3     1  UNL1        0.1529
     21 C          61.5891   91.8276    1.3887 C.3     1  UNL1        0.0357
     22 O          62.8101   91.7988    3.6818 O.3     1  UNL1       -0.3807
     23 H          63.5067   91.4472    3.1057 H       1  UNL1        0.2105
     24 O          59.8167   93.9791    3.0990 O.3     1  UNL1       -0.4472
     25 C          60.1657   94.5341    1.7499 C.2     1  UNL1        0.3176
     26 C          61.3232   95.4769    1.6033 C.3     1  UNL1        0.1212
     27 O          59.3573   94.1463    0.5473 O.2     1  UNL1       -0.2501
     28 C          62.7075   84.2584   14.0397 C.3     1  UNL1        0.1001
     29 C          61.7632   83.1567   14.4199 C.3     1  UNL1        0.0116
     30 C          63.1716   85.2393   15.0753 C.2     1  UNL1        0.1775
     31 O          62.2278   85.7037   16.1446 O.2     1  UNL1       -0.2935
     32 C          64.5795   85.7556   15.0416 C.3     1  UNL1        0.1392
     33 C          65.0918   84.3509   14.9216 C.3     1  UNL1        0.0369
     34 O          65.9874   86.2720   15.0079 O.3     1  UNL1       -0.3798
     35 H          66.5041   85.7607   14.3656 H       1  UNL1        0.2108
     36 C          64.0672   87.1603   15.1616 C.3     1  UNL1        0.0367
     37 C          64.2921   88.1384   14.0467 C.3     1  UNL1        0.0350
     38 C          64.1664   89.6108   14.3041 C.3     1  UNL1        0.1450
     39 O          65.2860   90.5360   13.9294 O.3     1  UNL1       -0.3280
     40 C          65.0324   91.6792   12.9919 C.3     1  UNL1        0.2749
     41 O          63.7648   91.7256   12.1913 O.3     1  UNL1       -0.3574
     42 H          63.7592   92.5241   11.6406 H       1  UNL1        0.2131
     43 C          66.0464   92.7760   12.8551 C.3     1  UNL1        0.2388
     44 C          66.4383   93.2695   11.4938 C.3     1  UNL1        0.1032
     45 N          66.5149   94.7430   11.2237 N.3     1  UNL1       -0.2683
     46 C          66.2521   95.7228   12.3287 C.3     1  UNL1        0.0897
     47 C          66.8543   95.2367    9.8486 C.3     1  UNL1        0.0897
     48 C          66.7536   92.2896   10.4028 C.3     1  UNL1        0.0198
     49 C          68.9436   92.4672    9.0162 C.3     1  UNL1        0.0000
     50 C          68.1732   91.8718   10.1572 C.3     1  UNL1        0.0015
     51 O          66.6686   93.3793   14.0794 O.3     1  UNL1       -0.4455
     52 C          67.9741   92.8508   14.5952 C.2     1  UNL1        0.3176
     53 C          68.3691   93.0907   16.0223 C.3     1  UNL1        0.1212
     54 O          68.8847   92.0824   13.6841 O.2     1  UNL1       -0.2501
     55 O          64.3412   83.5461   12.1493 O.3     1  UNL1       -0.4517
     56 C          64.0992   82.3798   11.2377 C.2     1  UNL1        0.3175
     57 C          63.1307   81.3055   11.6353 C.3     1  UNL1        0.1212
     58 O          64.8256   82.2876    9.9285 O.2     1  UNL1       -0.2501
@<TRIPOS>BOND
     1    49    50    1
     2    50    48    1
     3    44    48    1
     4    44    43    1
     5    43    51    1
     6    51    52    1
     7    52    53    1
     8    52    54    2
     9    43    40    1
    10    40    41    1
    11    40    39    1
    12    39    38    1
    13    38    37    1
    14    37    36    1
    15    36    32    1
    16    32    33    1
    17    32    34    1
    18    32    30    1
    19    30    31    2
    20    30    28    1
    21    28    29    1
    22    28     1    1
    23     1    55    1
    24    55    56    1
    25    56    57    1
    26    56    58    2
    27     1     2    1
    28     2     3    1
    29     2     4    1
    30     4     5    1
    31     5     6    1
    32     6     7    2
    33     6     8    1
    34     8     9    1
    35     8    10    1
    36    10    11    1
    37    11    12    1
    38    10    13    1
    39    13    14    1
    40    14    15    1
    41    16    15    1
    42    16    17    1
    43    17    18    1
    44    16    19    1
    45    19    24    1
    46    24    25    1
    47    25    26    1
    48    25    27    2
    49    19    20    1
    50    20    21    1
    51    20    22    1
    52    44    45    1
    53    45    46    1
    54    45    47    1
    55    41    42    1
    56    34    35    1
    57    22    23    1
@<TRIPOS>MOLECULE
*****
 58 57 0 0 0
SMALL
GASTEIGER

@<TRIPOS>ATOM
      1 C          62.1691   85.0945   10.7320 C.3     1  UNL1        0.1792
      2 C          62.1811   85.3195    9.2490 C.3     1  UNL1        0.0843
      3 C          63.4755   85.2670    8.4929 C.3     1  UNL1        0.0076
      4 C          60.8987   85.5971    8.5222 C.3     1  UNL1        0.2119
      5 O          60.7831   86.8042    7.6392 O.3     1  UNL1       -0.4483
      6 C          59.5246   87.6203    7.6455 C.2     1  UNL1        0.3188
      7 O          58.1929   86.9442    7.7858 O.2     1  UNL1       -0.2500
      8 C          59.5977   89.1125    7.5116 C.3     1  UNL1        0.1261
      9 C          60.0921   89.9450    8.6573 C.3     1  UNL1        0.0142
     10 C          59.1763   89.7722    6.2321 C.3     1  UNL1        0.1257
     11 C          57.7335   90.1131    6.0037 C.3     1  UNL1        0.0301
     12 C          57.3650   91.2290    5.0716 C.3     1  UNL1        0.0026
     13 O          60.1978   90.0910    5.1809 O.3     1  UNL1       -0.3556
     14 C          60.6486   91.5073    4.9782 C.3     1  UNL1        0.1447
     15 C          60.5563   92.1365    3.6197 C.3     1  UNL1        0.0654
     16 C          61.8067   92.4946    2.8726 C.3     1  UNL1        0.1601
     17 O          63.1423   92.0459    3.3870 O.3     1  UNL1       -0.3497
     18 C          63.5788   90.6230    3.1995 C.3     1  UNL1        0.1742
     19 C          61.7215   93.3014    1.6109 C.3     1  UNL1        0.2222
     20 C          60.5169   93.1832    0.7250 C.3     1  UNL1        0.1529
     21 C          60.4550   92.1058   -0.3169 C.3     1  UNL1        0.0357
     22 O          59.3741   94.1423    0.8808 O.3     1  UNL1       -0.3807
     23 H          58.6820   93.9282    0.2358 H       1  UNL1        0.2105
     24 O          62.8408   94.2265    1.2352 O.3     1  UNL1       -0.4472
     25 C          63.8635   93.7954    0.2261 C.2     1  UNL1        0.3176
     26 C          65.2223   93.3494    0.6789 C.3     1  UNL1        0.1212
     27 O          63.5275   93.8102   -1.2356 O.2     1  UNL1       -0.2501
     28 C          62.9308   83.9449   11.3224 C.3     1  UNL1        0.1001
     29 C          63.6093   82.9542   10.4234 C.3     1  UNL1        0.0116
     30 C          63.0138   83.7861   12.8116 C.2     1  UNL1        0.1775
     31 O          61.8088   83.3423   13.5868 O.2     1  UNL1       -0.2935
     32 C          64.3018   84.0710   13.5256 C.3     1  UNL1        0.1392
     33 C          64.6296   82.6073   13.5183 C.3     1  UNL1        0.0369
     34 O          65.5899   84.3559   14.2396 O.3     1  UNL1       -0.3798
     35 H          66.2911   83.7906   13.8795 H       1  UNL1        0.2108
     36 C          63.9740   85.5347   13.5328 C.3     1  UNL1        0.0367
     37 C          64.2860   86.3672   14.7411 C.3     1  UNL1        0.0350
     38 C          64.3529   87.8612   14.6255 C.3     1  UNL1        0.1450
     39 O          63.9301   88.5348   13.3538 O.3     1  UNL1       -0.3280
     40 C          63.2822   89.8868   13.4006 C.3     1  UNL1        0.2749
     41 O          61.7921   90.0091   13.2796 O.3     1  UNL1       -0.3574
     42 H          61.5394   90.9443   13.3291 H       1  UNL1        0.2131
     43 C          64.1244   91.1167   13.5686 C.3     1  UNL1        0.2388
     44 C          65.0378   91.2444   14.7516 C.3     1  UNL1        0.1032
     45 N          64.4660   91.4751   16.1191 N.3     1  UNL1       -0.2683
     46 C          63.4265   90.5413   16.6647 C.3     1  UNL1        0.0897
     47 C          64.9336   92.6395   16.9409 C.3     1  UNL1        0.0897
     48 C          66.5228   91.1415   14.5672 C.3     1  UNL1        0.0198
     49 C          66.7251   93.6855   14.0802 C.3     1  UNL1        0.0000
     50 C          67.2899   92.2984   13.9986 C.3     1  UNL1        0.0015
     51 O          64.0533   92.2187   12.5535 O.3     1  UNL1       -0.4455
     52 C          64.4388   91.9521   11.1287 C.2     1  UNL1        0.3176
     53 C          65.8002   92.3424   10.6344 C.3     1  UNL1        0.1212
     54 O          63.4629   91.2951   10.1981 O.2     1  UNL1       -0.2501
     55 O          61.3956   86.0190   11.6246 O.3     1  UNL1       -0.4517
     56 C          61.2301   87.4614   11.2477 C.2     1  UNL1        0.3175
     57 C          62.3076   88.1631   10.4752 C.3     1  UNL1        0.1212
     58 O          59.9871   88.2022   11.6431 O.2     1  UNL1       -0.2501
@<TRIPOS>BOND
     1    49    50    1
     2    50    48    1
     3    44    48    1
     4    44    43    1
     5    43    51    1
     6    51    52    1
     7    52    53    1
     8    52    54    2
     9    43    40    1
    10    40    41    1
    11    40    39    1
    12    39    38    1
    13    38    37    1
    14    37    36    1
    15    36    32    1
    16    32    33    1
    17    32    34    1
    18    32    30    1
    19    30    31    2
    20    30    28    1
    21    28    29    1
    22    28     1    1
    23     1    55    1
    24    55    56    1
    25    56    57    1
    26    56    58    2
    27     1     2    1
    28     2     3    1
    29     2     4    1
    30     4     5    1
    31     5     6    1
    32     6     7    2
    33     6     8    1
    34     8     9    1
    35     8    10    1
    36    10    11    1
    37    11    12    1
    38    10    13    1
    39    13    14    1
    40    14    15    1
    41    16    15    1
    42    16    17    1
    43    17    18    1
    44    16    19    1
    45    19    24    1
    46    24    25    1
    47    25    26    1
    48    25    27    2
    49    19    20    1
    50    20    21    1
    51    20    22    1
    52    44    45    1
    53    45    46    1
    54    45    47    1
    55    41    42    1
    56    34    35    1
    57    22    23    1
