@<TRIPOS>MOLECULE
*****
 35 38 0 0 0
SMALL
GASTEIGER

@<TRIPOS>ATOM
      1 C          64.5839   85.6065   14.5528 C.2     1  UNL1        0.2015
      2 O          66.0097   85.1692   14.7132 O.2     1  UNL1       -0.2864
      3 C          63.9696   86.5426   15.5511 C.ar    1  UNL1        0.0611
      4 C          63.2296   86.1446   16.7937 C.ar    1  UNL1        0.1037
      5 N          62.7902   87.3970   17.4925 N.ar    1  UNL1       -0.2269
      6 C          63.2585   88.5690   16.6818 C.ar    1  UNL1        0.1407
      7 N          63.1153   90.0487   16.8812 N.ar    1  UNL1       -0.3374
      8 C          63.7011   91.0004   15.8806 C.ar    1  UNL1        0.0735
      9 C          64.4301   90.4723   14.6807 C.ar    1  UNL1        0.0186
     10 C          64.5732   88.9925   14.4814 C.ar    1  UNL1        0.0047
     11 C          63.9874   88.0409   15.4819 C.ar    1  UNL1        0.0386
     12 H          62.6369   90.3953   17.6687 H       1  UNL1        0.1674
     13 C          65.0159   91.4240   13.6801 C.ar    1  UNL1        0.0206
     14 C          64.4411   91.5059   12.2971 C.ar    1  UNL1        0.0028
     15 C          65.0269   92.4577   11.2965 C.ar    1  UNL1        0.0147
     16 C          66.1875   93.3275   11.6791 C.ar    1  UNL1        0.0594
     17 C          66.7733   94.2792   10.6786 C.3     1  UNL1        0.0521
     18 N          66.7623   93.2456   13.0622 N.ar    1  UNL1       -0.2481
     19 C          66.1765   92.2939   14.0627 C.ar    1  UNL1        0.0984
     20 C          62.4296   85.5769   11.2198 C.ar    1  UNL1        0.0920
     21 C          62.1492   84.1103   11.0766 C.ar    1  UNL1        0.0204
     22 C          62.6803   83.1425   12.0921 C.ar    1  UNL1        0.0312
     23 C          63.4918   83.6412   13.2508 C.ar    1  UNL1        0.1454
     24 F          64.0229   82.6734   14.2663 F       1  UNL1       -0.2040
     25 C          63.7723   85.1078   13.3940 C.ar    1  UNL1        0.0951
     26 C          63.2412   86.0756   12.3785 C.ar    1  UNL1        0.1598
     27 F          63.5217   87.5422   12.5218 F       1  UNL1       -0.2026
     28 N          61.8985   86.5447   10.2043 N.pl3   1  UNL1       -0.2166
     29 H          61.7735   87.4912   10.4447 H       1  UNL1        0.1734
     30 S          61.5580   86.0705    8.8226 S.O2    1  UNL1        0.0540
     31 O          60.1067   86.3418    9.0872 O.2     1  UNL1       -0.1545
     32 O          63.0094   85.7992    8.5581 O.2     1  UNL1       -0.1545
     33 C          61.2176   85.5962    7.4409 C.3     1  UNL1        0.1724
     34 C          61.8002   84.1150    5.3874 C.3     1  UNL1        0.0019
     35 C          62.2186   84.8057    6.6514 C.3     1  UNL1        0.0273
@<TRIPOS>BOND
     1    34    35    1
     2    35    33    1
     3    33    30    1
     4    30    31    2
     5    30    32    2
     6    30    28    1
     7    28    20    1
     8    20    21   ar
     9    21    22   ar
    10    22    23   ar
    11    23    24    1
    12    23    25   ar
    13    25     1    1
    14     1     2    2
    15     1     3    1
    16     3     4   ar
    17     4     5   ar
    18     5     6   ar
    19     6     7   ar
    20     7     8   ar
    21     8     9   ar
    22     9    13    1
    23    13    14   ar
    24    14    15   ar
    25    15    16   ar
    26    16    17    1
    27    16    18   ar
    28    18    19   ar
    29     9    10   ar
    30    10    11   ar
    31    25    26   ar
    32    26    27    1
    33    26    20   ar
    34    11     3   ar
    35    11     6    1
    36    19    13   ar
    37    28    29    1
    38     7    12    1
@<TRIPOS>MOLECULE
*****
 35 38 0 0 0
SMALL
GASTEIGER

@<TRIPOS>ATOM
      1 C          64.6897   85.6103   14.7143 C.2     1  UNL1        0.2015
      2 O          66.1696   85.3820   14.8016 O.2     1  UNL1       -0.2864
      3 C          64.0235   86.5767   15.6483 C.ar    1  UNL1        0.0611
      4 C          63.2548   86.2194   16.8857 C.ar    1  UNL1        0.1037
      5 N          62.7652   87.4920   17.5109 N.ar    1  UNL1       -0.2269
      6 C          63.2314   88.6358   16.6598 C.ar    1  UNL1        0.1407
      7 N          63.0482   90.1194   16.7843 N.ar    1  UNL1       -0.3374
      8 C          63.6427   91.0372   15.7576 C.ar    1  UNL1        0.0735
      9 C          64.4204   90.4715   14.6064 C.ar    1  UNL1        0.0186
     10 C          64.6036   88.9880   14.4819 C.ar    1  UNL1        0.0047
     11 C          64.0091   88.0701   15.5086 C.ar    1  UNL1        0.0386
     12 H          62.5378   90.4906   17.5398 H       1  UNL1        0.1674
     13 C          65.0149   91.3894   13.5797 C.ar    1  UNL1        0.0206
     14 C          64.3870   91.5033   12.2222 C.ar    1  UNL1        0.0028
     15 C          64.9815   92.4212   11.1955 C.ar    1  UNL1        0.0147
     16 C          66.2039   93.2252   11.5264 C.ar    1  UNL1        0.0594
     17 C          66.7984   94.1431   10.4997 C.3     1  UNL1        0.0521
     18 N          66.8317   93.1113   12.8839 N.ar    1  UNL1       -0.2481
     19 C          66.2372   92.1934   13.9105 C.ar    1  UNL1        0.0984
     20 C          62.4656   84.8733   11.5111 C.ar    1  UNL1        0.0920
     21 C          62.2484   83.3957   11.6507 C.ar    1  UNL1        0.0204
     22 C          62.8450   82.6563   12.8115 C.ar    1  UNL1        0.0312
     23 C          63.6587   83.3944   13.8327 C.ar    1  UNL1        0.1454
     24 F          64.2552   82.6550   14.9935 F       1  UNL1       -0.2040
     25 C          63.8759   84.8720   13.6931 C.ar    1  UNL1        0.0951
     26 C          63.2794   85.6114   12.5323 C.ar    1  UNL1        0.1598
     27 F          63.4967   87.0891   12.3928 F       1  UNL1       -0.2026
     28 N          61.8691   85.6127   10.3503 N.pl3   1  UNL1       -0.2166
     29 H          61.6779   85.1373    9.5097 H       1  UNL1        0.1734
     30 S          61.5639   87.0763   10.4704 S.O2    1  UNL1        0.0540
     31 O          60.6205   86.7870   11.6001 O.2     1  UNL1       -0.1545
     32 O          62.5072   87.3657    9.3406 O.2     1  UNL1       -0.1545
     33 C          61.2587   88.5400   10.5904 C.3     1  UNL1        0.1724
     34 C          59.6647   90.4513   11.3364 C.3     1  UNL1        0.0019
     35 C          59.9964   88.9902   11.2642 C.3     1  UNL1        0.0273
@<TRIPOS>BOND
     1    34    35    1
     2    35    33    1
     3    33    30    1
     4    30    31    2
     5    30    32    2
     6    30    28    1
     7    28    20    1
     8    20    21   ar
     9    21    22   ar
    10    22    23   ar
    11    23    24    1
    12    23    25   ar
    13    25     1    1
    14     1     2    2
    15     1     3    1
    16     3     4   ar
    17     4     5   ar
    18     5     6   ar
    19     6     7   ar
    20     7     8   ar
    21     8     9   ar
    22     9    13    1
    23    13    14   ar
    24    14    15   ar
    25    15    16   ar
    26    16    17    1
    27    16    18   ar
    28    18    19   ar
    29     9    10   ar
    30    10    11   ar
    31    25    26   ar
    32    26    27    1
    33    26    20   ar
    34    11     3   ar
    35    11     6    1
    36    19    13   ar
    37    28    29    1
    38     7    12    1
@<TRIPOS>MOLECULE
*****
 35 38 0 0 0
SMALL
GASTEIGER

@<TRIPOS>ATOM
      1 C          62.6170   85.4084    9.2614 C.2     1  UNL1        0.2015
      2 O          63.3532   85.1634    7.9777 O.2     1  UNL1       -0.2864
      3 C          61.5197   86.4298    9.3135 C.ar    1  UNL1        0.0611
      4 C          60.1588   86.2941    8.6975 C.ar    1  UNL1        0.1037
      5 N          59.3888   87.5467    8.9942 N.ar    1  UNL1       -0.2269
      6 C          60.2737   88.4566    9.7935 C.ar    1  UNL1        0.1407
      7 N          60.0505   89.8244   10.3672 N.ar    1  UNL1       -0.3374
      8 C          61.1443   90.5020   11.1382 C.ar    1  UNL1        0.0735
      9 C          62.4613   89.8117   11.3356 C.ar    1  UNL1        0.0186
     10 C          62.6845   88.4439   10.7619 C.ar    1  UNL1        0.0047
     11 C          61.5908   87.7663    9.9909 C.ar    1  UNL1        0.0386
     12 H          59.1861   90.2775   10.2376 H       1  UNL1        0.1674
     13 C          63.5551   90.4894   12.1066 C.ar    1  UNL1        0.0206
     14 C          63.9481   89.9754   13.4599 C.ar    1  UNL1        0.0028
     15 C          65.0419   90.6530   14.2310 C.ar    1  UNL1        0.0147
     16 C          65.7427   91.8446   13.6487 C.ar    1  UNL1        0.0594
     17 C          66.8364   92.5222   14.4197 C.3     1  UNL1        0.0521
     18 N          65.3496   92.3586   12.2953 N.ar    1  UNL1       -0.2481
     19 C          64.2559   91.6809   11.5244 C.ar    1  UNL1        0.0984
     20 C          62.6953   84.1899   13.0376 C.ar    1  UNL1        0.0920
     21 C          63.7001   83.0791   12.9562 C.ar    1  UNL1        0.0204
     22 C          64.3438   82.7448   11.6432 C.ar    1  UNL1        0.0312
     23 C          63.9828   83.5211   10.4116 C.ar    1  UNL1        0.1454
     24 F          64.6265   83.1868    9.0987 F       1  UNL1       -0.2040
     25 C          62.9780   84.6319   10.4930 C.ar    1  UNL1        0.0951
     26 C          62.3343   84.9663   11.8060 C.ar    1  UNL1        0.1598
     27 F          61.3296   86.0771   11.8873 F       1  UNL1       -0.2026
     28 N          62.0516   84.5243   14.3505 N.pl3   1  UNL1       -0.2166
     29 H          61.1134   84.2763   14.5161 H       1  UNL1        0.1734
     30 S          62.8375   85.2365   15.4113 S.O2    1  UNL1        0.0540
     31 O          63.4865   86.0866   14.3596 O.2     1  UNL1       -0.1545
     32 O          62.1885   84.3863   16.4629 O.2     1  UNL1       -0.1545
     33 C          63.6233   85.9486   16.4720 C.3     1  UNL1        0.1724
     34 C          63.0525   88.4162   17.0515 C.3     1  UNL1        0.0019
     35 C          62.9479   86.9519   17.3594 C.3     1  UNL1        0.0273
@<TRIPOS>BOND
     1    34    35    1
     2    35    33    1
     3    33    30    1
     4    30    31    2
     5    30    32    2
     6    30    28    1
     7    28    20    1
     8    20    21   ar
     9    21    22   ar
    10    22    23   ar
    11    23    24    1
    12    23    25   ar
    13    25     1    1
    14     1     2    2
    15     1     3    1
    16     3     4   ar
    17     4     5   ar
    18     5     6   ar
    19     6     7   ar
    20     7     8   ar
    21     8     9   ar
    22     9    13    1
    23    13    14   ar
    24    14    15   ar
    25    15    16   ar
    26    16    17    1
    27    16    18   ar
    28    18    19   ar
    29     9    10   ar
    30    10    11   ar
    31    25    26   ar
    32    26    27    1
    33    26    20   ar
    34    11     3   ar
    35    11     6    1
    36    19    13   ar
    37    28    29    1
    38     7    12    1
@<TRIPOS>MOLECULE
*****
 35 38 0 0 0
SMALL
GASTEIGER

@<TRIPOS>ATOM
      1 C          63.0983   90.3364   13.0385 C.2     1  UNL1        0.2015
      2 O          62.5169   89.9633   14.3699 O.2     1  UNL1       -0.2864
      3 C          62.4178   89.9015   11.7745 C.ar    1  UNL1        0.0611
      4 C          61.8128   90.8065   10.7426 C.ar    1  UNL1        0.1037
      5 N          61.2439   89.9496    9.6508 N.ar    1  UNL1       -0.2269
      6 C          61.4974   88.5149   10.0079 C.ar    1  UNL1        0.1407
      7 N          61.1612   87.2318    9.3075 N.ar    1  UNL1       -0.3374
      8 C          61.5506   85.9190    9.9197 C.ar    1  UNL1        0.0735
      9 C          62.2761   85.8893   11.2322 C.ar    1  UNL1        0.0186
     10 C          62.6123   87.1724   11.9326 C.ar    1  UNL1        0.0047
     11 C          62.2229   88.4852   11.3205 C.ar    1  UNL1        0.0386
     12 H          60.6851   87.2513    8.4461 H       1  UNL1        0.1674
     13 C          62.6655   84.5763   11.8444 C.ar    1  UNL1        0.0206
     14 C          63.1304   83.4496   10.9701 C.ar    1  UNL1        0.0028
     15 C          63.5198   82.1367   11.5822 C.ar    1  UNL1        0.0147
     16 C          63.4443   81.9506   13.0687 C.ar    1  UNL1        0.0594
     17 C          63.8337   80.6377   13.6809 C.3     1  UNL1        0.0521
     18 N          62.9794   83.0773   13.9431 N.ar    1  UNL1       -0.2481
     19 C          62.5901   84.3902   13.3309 C.ar    1  UNL1        0.0984
     20 C          66.0781   92.5235   11.5937 C.ar    1  UNL1        0.0920
     21 C          66.8842   92.7605   12.8363 C.ar    1  UNL1        0.0204
     22 C          66.4283   92.1895   14.1463 C.ar    1  UNL1        0.0312
     23 C          65.1664   91.3814   14.2137 C.ar    1  UNL1        0.1454
     24 F          64.7105   90.8104   15.5237 F       1  UNL1       -0.2040
     25 C          64.3603   91.1445   12.9711 C.ar    1  UNL1        0.0951
     26 C          64.8162   91.7155   11.6611 C.ar    1  UNL1        0.1598
     27 F          64.0101   91.4785   10.4185 F       1  UNL1       -0.2026
     28 N          66.5340   93.0946   10.2837 N.pl3   1  UNL1       -0.2166
     29 H          66.6388   92.5073    9.5005 H       1  UNL1        0.1734
     30 S          66.8302   94.5604   10.1670 S.O2    1  UNL1        0.0540
     31 O          65.4261   94.8776   10.5888 O.2     1  UNL1       -0.1545
     32 O          68.2342   94.2431    9.7451 O.2     1  UNL1       -0.1545
     33 C          67.1264   96.0262   10.0502 C.3     1  UNL1        0.1724
     34 C          66.2623   96.6953    7.6931 C.3     1  UNL1        0.0019
     35 C          67.3707   96.6369    8.7021 C.3     1  UNL1        0.0273
@<TRIPOS>BOND
     1    34    35    1
     2    35    33    1
     3    33    30    1
     4    30    31    2
     5    30    32    2
     6    30    28    1
     7    28    20    1
     8    20    21   ar
     9    21    22   ar
    10    22    23   ar
    11    23    24    1
    12    23    25   ar
    13    25     1    1
    14     1     2    2
    15     1     3    1
    16     3     4   ar
    17     4     5   ar
    18     5     6   ar
    19     6     7   ar
    20     7     8   ar
    21     8     9   ar
    22     9    13    1
    23    13    14   ar
    24    14    15   ar
    25    15    16   ar
    26    16    17    1
    27    16    18   ar
    28    18    19   ar
    29     9    10   ar
    30    10    11   ar
    31    25    26   ar
    32    26    27    1
    33    26    20   ar
    34    11     3   ar
    35    11     6    1
    36    19    13   ar
    37    28    29    1
    38     7    12    1
@<TRIPOS>MOLECULE
*****
 35 38 0 0 0
SMALL
GASTEIGER

@<TRIPOS>ATOM
      1 C          62.4308   89.7512   11.9039 C.2     1  UNL1        0.2015
      2 O          61.7981   90.7815   11.0163 O.2     1  UNL1       -0.2864
      3 C          63.2697   90.1799   13.0712 C.ar    1  UNL1        0.0611
      4 C          63.2191   89.6000   14.4536 C.ar    1  UNL1        0.1037
      5 N          64.2247   90.3256   15.2976 N.ar    1  UNL1       -0.2269
      6 C          64.8967   91.3540   14.4369 C.ar    1  UNL1        0.1407
      7 N          65.9698   92.3607   14.7283 N.ar    1  UNL1       -0.3374
      8 C          66.4526   93.2774   13.6437 C.ar    1  UNL1        0.0735
      9 C          65.8624   93.1874   12.2676 C.ar    1  UNL1        0.0186
     10 C          64.7893   92.1806   11.9762 C.ar    1  UNL1        0.0047
     11 C          64.3065   91.2639   13.0608 C.ar    1  UNL1        0.0386
     12 H          66.3571   92.4198   15.6314 H       1  UNL1        0.1674
     13 C          66.3453   94.1041   11.1829 C.ar    1  UNL1        0.0206
     14 C          67.0398   93.5407    9.9788 C.ar    1  UNL1        0.0028
     15 C          67.5228   94.4575    8.8941 C.ar    1  UNL1        0.0147
     16 C          67.3111   95.9377    9.0137 C.ar    1  UNL1        0.0594
     17 C          67.7939   96.8544    7.9292 C.3     1  UNL1        0.0521
     18 N          66.6164   96.5011   10.2180 N.ar    1  UNL1       -0.2481
     19 C          66.1336   95.5843   11.3026 C.ar    1  UNL1        0.0984
     20 C          62.8634   85.8086   12.0428 C.ar    1  UNL1        0.0920
     21 C          61.8121   85.3735   11.0652 C.ar    1  UNL1        0.0204
     22 C          60.9671   86.3976   10.3673 C.ar    1  UNL1        0.0312
     23 C          61.1733   87.8568   10.6468 C.ar    1  UNL1        0.1454
     24 F          60.3282   88.8809    9.9489 F       1  UNL1       -0.2040
     25 C          62.2245   88.2919   11.6244 C.ar    1  UNL1        0.0951
     26 C          63.0696   87.2678   12.3223 C.ar    1  UNL1        0.1598
     27 F          64.1208   87.7030   13.2998 F       1  UNL1       -0.2026
     28 N          63.7084   84.7845   12.7407 N.pl3   1  UNL1       -0.2166
     29 H          64.6853   84.7864   12.6187 H       1  UNL1        0.1734
     30 S          63.0650   83.7574   13.6246 S.O2    1  UNL1        0.0540
     31 O          62.5333   84.8488   14.5056 O.2     1  UNL1       -0.1545
     32 O          63.5967   82.6661   12.7435 O.2     1  UNL1       -0.1545
     33 C          62.4216   82.7303   14.5083 C.3     1  UNL1        0.1724
     34 C          60.6953   80.8341   14.0909 C.3     1  UNL1        0.0019
     35 C          62.0890   81.3734   13.9622 C.3     1  UNL1        0.0273
@<TRIPOS>BOND
     1    34    35    1
     2    35    33    1
     3    33    30    1
     4    30    31    2
     5    30    32    2
     6    30    28    1
     7    28    20    1
     8    20    21   ar
     9    21    22   ar
    10    22    23   ar
    11    23    24    1
    12    23    25   ar
    13    25     1    1
    14     1     2    2
    15     1     3    1
    16     3     4   ar
    17     4     5   ar
    18     5     6   ar
    19     6     7   ar
    20     7     8   ar
    21     8     9   ar
    22     9    13    1
    23    13    14   ar
    24    14    15   ar
    25    15    16   ar
    26    16    17    1
    27    16    18   ar
    28    18    19   ar
    29     9    10   ar
    30    10    11   ar
    31    25    26   ar
    32    26    27    1
    33    26    20   ar
    34    11     3   ar
    35    11     6    1
    36    19    13   ar
    37    28    29    1
    38     7    12    1
@<TRIPOS>MOLECULE
*****
 35 38 0 0 0
SMALL
GASTEIGER

@<TRIPOS>ATOM
      1 C          65.0833   90.9953   13.7332 C.2     1  UNL1        0.2015
      2 O          66.5536   91.2908   13.7070 O.2     1  UNL1       -0.2864
      3 C          64.4200   90.6027   15.0201 C.ar    1  UNL1        0.0611
      4 C          64.0390   91.5314   16.1347 C.ar    1  UNL1        0.1037
      5 N          63.4048   90.7151   17.2217 N.ar    1  UNL1       -0.2269
      6 C          63.3939   89.2820   16.7788 C.ar    1  UNL1        0.1407
      7 N          62.8936   88.0314   17.4388 N.ar    1  UNL1       -0.3374
      8 C          63.0208   86.7113   16.7380 C.ar    1  UNL1        0.0735
      9 C          63.6483   86.6418   15.3773 C.ar    1  UNL1        0.0186
     10 C          64.1485   87.8925   14.7174 C.ar    1  UNL1        0.0047
     11 C          64.0213   89.2126   15.4181 C.ar    1  UNL1        0.0386
     12 H          62.4818   88.0770   18.3318 H       1  UNL1        0.1674
     13 C          63.7754   85.3216   14.6766 C.ar    1  UNL1        0.0206
     14 C          63.6681   85.2524   13.1821 C.ar    1  UNL1        0.0028
     15 C          63.7952   83.9322   12.4813 C.ar    1  UNL1        0.0147
     16 C          64.0298   82.6813   13.2752 C.ar    1  UNL1        0.0594
     17 C          64.1570   81.3611   12.5745 C.3     1  UNL1        0.0521
     18 N          64.1372   82.7505   14.7698 N.ar    1  UNL1       -0.2481
     19 C          64.0100   84.0707   15.4704 C.ar    1  UNL1        0.0984
     20 C          62.0852   90.6130   11.1612 C.ar    1  UNL1        0.0920
     21 C          62.6620   91.2865    9.9514 C.ar    1  UNL1        0.0204
     22 C          64.0459   91.8630   10.0022 C.ar    1  UNL1        0.0312
     23 C          64.8530   91.7659   11.2627 C.ar    1  UNL1        0.1454
     24 F          66.2369   92.3424   11.3135 F       1  UNL1       -0.2040
     25 C          64.2762   91.0924   12.4725 C.ar    1  UNL1        0.0951
     26 C          62.8923   90.5160   12.4217 C.ar    1  UNL1        0.1598
     27 F          62.3156   89.8424   13.6316 F       1  UNL1       -0.2026
     28 N          60.7013   90.0365   11.1104 N.pl3   1  UNL1       -0.2166
     29 H          59.9499   90.5234   11.5198 H       1  UNL1        0.1734
     30 S          60.4623   88.7183   10.4358 S.O2    1  UNL1        0.0540
     31 O          60.2029   89.4283    9.1402 O.2     1  UNL1       -0.1545
     32 O          60.7216   88.0083   11.7314 O.2     1  UNL1       -0.1545
     33 C          60.2233   87.4000    9.7613 C.3     1  UNL1        0.1724
     34 C          62.2749   86.0492    8.9148 C.3     1  UNL1        0.0019
     35 C          61.2030   86.2781    9.9389 C.3     1  UNL1        0.0273
@<TRIPOS>BOND
     1    34    35    1
     2    35    33    1
     3    33    30    1
     4    30    31    2
     5    30    32    2
     6    30    28    1
     7    28    20    1
     8    20    21   ar
     9    21    22   ar
    10    22    23   ar
    11    23    24    1
    12    23    25   ar
    13    25     1    1
    14     1     2    2
    15     1     3    1
    16     3     4   ar
    17     4     5   ar
    18     5     6   ar
    19     6     7   ar
    20     7     8   ar
    21     8     9   ar
    22     9    13    1
    23    13    14   ar
    24    14    15   ar
    25    15    16   ar
    26    16    17    1
    27    16    18   ar
    28    18    19   ar
    29     9    10   ar
    30    10    11   ar
    31    25    26   ar
    32    26    27    1
    33    26    20   ar
    34    11     3   ar
    35    11     6    1
    36    19    13   ar
    37    28    29    1
    38     7    12    1
@<TRIPOS>MOLECULE
*****
 35 38 0 0 0
SMALL
GASTEIGER

@<TRIPOS>ATOM
      1 C          60.6370   90.3351   10.7558 C.2     1  UNL1        0.2015
      2 O          59.4001   91.0051   11.2761 O.2     1  UNL1       -0.2864
      3 C          60.5300   89.2900    9.6851 C.ar    1  UNL1        0.0611
      4 C          59.9345   89.4821    8.3219 C.ar    1  UNL1        0.1037
      5 N          60.0362   88.1801    7.5840 N.ar    1  UNL1       -0.2269
      6 C          60.6946   87.1833    8.4912 C.ar    1  UNL1        0.1407
      7 N          61.0556   85.7397    8.3025 N.ar    1  UNL1       -0.3374
      8 C          61.7218   84.9821    9.4125 C.ar    1  UNL1        0.0735
      9 C          62.0270   85.6680   10.7111 C.ar    1  UNL1        0.0186
     10 C          61.6660   87.1116   10.8997 C.ar    1  UNL1        0.0047
     11 C          60.9998   87.8693    9.7898 C.ar    1  UNL1        0.0386
     12 H          60.8553   85.2895    7.4502 H       1  UNL1        0.1674
     13 C          62.6933   84.9103   11.8211 C.ar    1  UNL1        0.0206
     14 C          63.2839   85.6497   12.9849 C.ar    1  UNL1        0.0028
     15 C          63.9502   84.8919   14.0949 C.ar    1  UNL1        0.0147
     16 C          64.0258   83.3948   14.0410 C.ar    1  UNL1        0.0594
     17 C          64.6920   82.6371   15.1509 C.3     1  UNL1        0.0521
     18 N          63.4351   82.6554   12.8772 N.ar    1  UNL1       -0.2481
     19 C          62.7689   83.4132   11.7672 C.ar    1  UNL1        0.0984
     20 C          63.6282   90.8671   13.3092 C.ar    1  UNL1        0.0920
     21 C          64.6692   91.4603   12.4067 C.ar    1  UNL1        0.0204
     22 C          64.3661   91.6784   10.9540 C.ar    1  UNL1        0.0312
     23 C          63.0221   91.3034   10.4036 C.ar    1  UNL1        0.1454
     24 F          62.7191   91.5215    8.9508 F       1  UNL1       -0.2040
     25 C          61.9812   90.7102   11.3061 C.ar    1  UNL1        0.0951
     26 C          62.2842   90.4920   12.7589 C.ar    1  UNL1        0.1598
     27 F          61.2432   89.8988   13.6613 F       1  UNL1       -0.2026
     28 N          63.9313   90.6489   14.7620 N.pl3   1  UNL1       -0.2166
     29 H          64.2631   91.3943   15.3130 H       1  UNL1        0.1734
     30 S          63.7288   89.2951   15.3753 S.O2    1  UNL1        0.0540
     31 O          62.8493   89.9032   16.4272 O.2     1  UNL1       -0.1545
     32 O          64.6084   88.6870   14.3234 O.2     1  UNL1       -0.1545
     33 C          63.5265   87.9413   15.9885 C.3     1  UNL1        0.1724
     34 C          62.6731   86.4633   17.9476 C.3     1  UNL1        0.0019
     35 C          62.8728   87.8169   17.3329 C.3     1  UNL1        0.0273
@<TRIPOS>BOND
     1    34    35    1
     2    35    33    1
     3    33    30    1
     4    30    31    2
     5    30    32    2
     6    30    28    1
     7    28    20    1
     8    20    21   ar
     9    21    22   ar
    10    22    23   ar
    11    23    24    1
    12    23    25   ar
    13    25     1    1
    14     1     2    2
    15     1     3    1
    16     3     4   ar
    17     4     5   ar
    18     5     6   ar
    19     6     7   ar
    20     7     8   ar
    21     8     9   ar
    22     9    13    1
    23    13    14   ar
    24    14    15   ar
    25    15    16   ar
    26    16    17    1
    27    16    18   ar
    28    18    19   ar
    29     9    10   ar
    30    10    11   ar
    31    25    26   ar
    32    26    27    1
    33    26    20   ar
    34    11     3   ar
    35    11     6    1
    36    19    13   ar
    37    28    29    1
    38     7    12    1
@<TRIPOS>MOLECULE
*****
 35 38 0 0 0
SMALL
GASTEIGER

@<TRIPOS>ATOM
      1 C          61.2395   89.9645   11.5673 C.2     1  UNL1        0.2015
      2 O          60.1688   90.0768   12.6117 O.2     1  UNL1       -0.2864
      3 C          60.9614   89.2418   10.2827 C.ar    1  UNL1        0.0611
      4 C          60.2844   89.8190    9.0750 C.ar    1  UNL1        0.1037
      5 N          60.2161   88.7489    8.0262 N.ar    1  UNL1       -0.2269
      6 C          60.8508   87.5103    8.5856 C.ar    1  UNL1        0.1407
      7 N          61.0689   86.1444    8.0053 N.ar    1  UNL1       -0.3374
      8 C          61.7476   85.0832    8.8196 C.ar    1  UNL1        0.0735
      9 C          62.2082   85.3879   10.2142 C.ar    1  UNL1        0.0186
     10 C          61.9902   86.7537   10.7945 C.ar    1  UNL1        0.0047
     11 C          61.3115   87.8149    9.9802 C.ar    1  UNL1        0.0386
     12 H          60.7666   85.9445    7.0899 H       1  UNL1        0.1674
     13 C          62.8870   84.3266   11.0285 C.ar    1  UNL1        0.0206
     14 C          62.5854   84.1966   12.4921 C.ar    1  UNL1        0.0028
     15 C          63.2641   83.1353   13.3064 C.ar    1  UNL1        0.0147
     16 C          64.2444   82.2040   12.6571 C.ar    1  UNL1        0.0594
     17 C          64.9232   81.1427   13.4713 C.3     1  UNL1        0.0521
     18 N          64.5460   82.3340   11.1934 N.ar    1  UNL1       -0.2481
     19 C          63.8673   83.3953   10.3792 C.ar    1  UNL1        0.0984
     20 C          64.6030   91.0319   13.3833 C.ar    1  UNL1        0.0920
     21 C          65.2863   91.7960   12.2881 C.ar    1  UNL1        0.0204
     22 C          64.6206   91.9496   10.9527 C.ar    1  UNL1        0.0312
     23 C          63.2717   91.3392   10.7124 C.ar    1  UNL1        0.1454
     24 F          62.6060   91.4927    9.3770 F       1  UNL1       -0.2040
     25 C          62.5885   90.5751   11.8076 C.ar    1  UNL1        0.0951
     26 C          63.2541   90.4215   13.1430 C.ar    1  UNL1        0.1598
     27 F          62.5708   89.6574   14.2381 F       1  UNL1       -0.2026
     28 N          65.2687   90.8783   14.7187 N.pl3   1  UNL1       -0.2166
     29 H          65.1299   90.0590   15.2466 H       1  UNL1        0.1734
     30 S          66.1459   91.9731   15.2497 S.O2    1  UNL1        0.0540
     31 O          64.9475   92.6374   15.8599 O.2     1  UNL1       -0.1545
     32 O          67.3444   91.3087   14.6396 O.2     1  UNL1       -0.1545
     33 C          67.0232   93.0677   15.7807 C.3     1  UNL1        0.1724
     34 C          69.3788   94.1279   16.0591 C.3     1  UNL1        0.0019
     35 C          68.5024   93.0295   15.5344 C.3     1  UNL1        0.0273
@<TRIPOS>BOND
     1    34    35    1
     2    35    33    1
     3    33    30    1
     4    30    31    2
     5    30    32    2
     6    30    28    1
     7    28    20    1
     8    20    21   ar
     9    21    22   ar
    10    22    23   ar
    11    23    24    1
    12    23    25   ar
    13    25     1    1
    14     1     2    2
    15     1     3    1
    16     3     4   ar
    17     4     5   ar
    18     5     6   ar
    19     6     7   ar
    20     7     8   ar
    21     8     9   ar
    22     9    13    1
    23    13    14   ar
    24    14    15   ar
    25    15    16   ar
    26    16    17    1
    27    16    18   ar
    28    18    19   ar
    29     9    10   ar
    30    10    11   ar
    31    25    26   ar
    32    26    27    1
    33    26    20   ar
    34    11     3   ar
    35    11     6    1
    36    19    13   ar
    37    28    29    1
    38     7    12    1
@<TRIPOS>MOLECULE
*****
 35 38 0 0 0
SMALL
GASTEIGER

@<TRIPOS>ATOM
      1 C          62.8057   85.4645    9.7591 C.2     1  UNL1        0.2015
      2 O          63.6662   85.0470    8.6037 O.2     1  UNL1       -0.2864
      3 C          61.6772   86.4289    9.5440 C.ar    1  UNL1        0.0611
      4 C          60.3447   86.1052    8.9360 C.ar    1  UNL1        0.1037
      5 N          59.5270   87.3625    8.9153 N.ar    1  UNL1       -0.2269
      6 C          60.3541   88.4633    9.5104 C.ar    1  UNL1        0.1407
      7 N          60.0689   89.9165    9.7487 N.ar    1  UNL1       -0.3374
      8 C          61.1126   90.7926   10.3756 C.ar    1  UNL1        0.0735
      9 C          62.4415   90.2156   10.7641 C.ar    1  UNL1        0.0186
     10 C          62.7267   88.7624   10.5258 C.ar    1  UNL1        0.0047
     11 C          61.6830   87.8862    9.8990 C.ar    1  UNL1        0.0386
     12 H          59.1966   90.2952    9.4937 H       1  UNL1        0.1674
     13 C          63.4852   91.0918   11.3910 C.ar    1  UNL1        0.0206
     14 C          64.3241   91.9910   10.5322 C.ar    1  UNL1        0.0028
     15 C          65.3678   92.8672   11.1591 C.ar    1  UNL1        0.0147
     16 C          65.5726   92.8442   12.6448 C.ar    1  UNL1        0.0594
     17 C          66.6163   93.7204   13.2717 C.3     1  UNL1        0.0521
     18 N          64.7337   91.9450   13.5037 N.ar    1  UNL1       -0.2481
     19 C          63.6900   91.0688   12.8768 C.ar    1  UNL1        0.0984
     20 C          63.4506   82.8891   12.7091 C.ar    1  UNL1        0.0920
     21 C          63.6101   83.8237   13.8715 C.ar    1  UNL1        0.0204
     22 C          63.5014   85.3052   13.6631 C.ar    1  UNL1        0.0312
     23 C          63.2333   85.8521   12.2924 C.ar    1  UNL1        0.1454
     24 F          63.1247   87.3336   12.0840 F       1  UNL1       -0.2040
     25 C          63.0739   84.9175   11.1300 C.ar    1  UNL1        0.0951
     26 C          63.1825   83.4361   11.3384 C.ar    1  UNL1        0.1598
     27 F          63.0230   82.5015   10.1759 F       1  UNL1       -0.2026
     28 N          63.5592   81.4076   12.9175 N.pl3   1  UNL1       -0.2166
     29 H          64.3678   80.9275   12.6260 H       1  UNL1        0.1734
     30 S          62.4359   80.6577   13.5699 S.O2    1  UNL1        0.0540
     31 O          63.4214   79.9462   14.4489 O.2     1  UNL1       -0.1545
     32 O          61.4504   81.3691   12.6910 O.2     1  UNL1       -0.1545
     33 C          61.3125   79.9078   14.2223 C.3     1  UNL1        0.1724
     34 C          58.7642   79.5933   14.6192 C.3     1  UNL1        0.0019
     35 C          59.9093   80.4301   14.1309 C.3     1  UNL1        0.0273
@<TRIPOS>BOND
     1    34    35    1
     2    35    33    1
     3    33    30    1
     4    30    31    2
     5    30    32    2
     6    30    28    1
     7    28    20    1
     8    20    21   ar
     9    21    22   ar
    10    22    23   ar
    11    23    24    1
    12    23    25   ar
    13    25     1    1
    14     1     2    2
    15     1     3    1
    16     3     4   ar
    17     4     5   ar
    18     5     6   ar
    19     6     7   ar
    20     7     8   ar
    21     8     9   ar
    22     9    13    1
    23    13    14   ar
    24    14    15   ar
    25    15    16   ar
    26    16    17    1
    27    16    18   ar
    28    18    19   ar
    29     9    10   ar
    30    10    11   ar
    31    25    26   ar
    32    26    27    1
    33    26    20   ar
    34    11     3   ar
    35    11     6    1
    36    19    13   ar
    37    28    29    1
    38     7    12    1
