@<TRIPOS>MOLECULE
*****
 40 43 0 0 0
SMALL
GASTEIGER

@<TRIPOS>ATOM
      1 C          63.9922   86.5039   15.6357 C.ar    1  UNL1        0.0611
      2 C          63.2576   86.1111   16.8831 C.ar    1  UNL1        0.1037
      3 N          62.7725   87.3644   17.5494 N.ar    1  UNL1       -0.2269
      4 C          63.2073   88.5317   16.7138 C.ar    1  UNL1        0.1407
      5 N          63.0142   90.0102   16.8771 N.ar    1  UNL1       -0.3374
      6 C          63.5749   90.9569   15.8576 C.ar    1  UNL1        0.0734
      7 C          64.3287   90.4251   14.6749 C.ar    1  UNL1        0.0171
      8 C          64.5218   88.9466   14.5116 C.ar    1  UNL1        0.0046
      9 C          63.9611   87.9999   15.5310 C.ar    1  UNL1        0.0386
     10 H          62.5194   90.3593   17.6534 H       1  UNL1        0.1674
     11 C          64.8895   91.3719   13.6554 C.ar    1  UNL1        0.0015
     12 C          65.9896   92.3180   14.0356 C.ar    1  UNL1        0.0014
     13 C          66.5503   93.2648   13.0161 C.ar    1  UNL1        0.0183
     14 C          66.0109   93.2654   11.6164 C.ar    1  UNL1        0.1056
     15 C          64.9107   92.3192   11.2363 C.ar    1  UNL1        0.0183
     16 C          64.3500   91.3725   12.2558 C.ar    1  UNL1        0.0014
     17 S          66.5715   94.2121   10.5970 S.O2    1  UNL1        0.0070
     18 O          65.3357   95.0558   10.7009 O.2     1  UNL1       -0.1687
     19 O          67.8073   93.3683   10.4931 O.2     1  UNL1       -0.1687
     20 C          67.1322   95.1588    9.5775 C.3     1  UNL1        0.1339
     21 C          67.0836   96.6381    9.8210 C.3     1  UNL1        0.0257
     22 C          67.7415   94.6262    8.3145 C.3     1  UNL1        0.0257
     23 C          64.6435   85.5655   14.6635 C.2     1  UNL1        0.2015
     24 O          66.1199   85.3118   14.7402 O.2     1  UNL1       -0.2864
     25 C          62.4185   84.9873   11.4285 C.ar    1  UNL1        0.0920
     26 C          62.1683   83.5109   11.5167 C.ar    1  UNL1        0.0204
     27 C          62.7431   82.7194   12.6539 C.ar    1  UNL1        0.0312
     28 C          63.5682   83.4042   13.7028 C.ar    1  UNL1        0.1454
     29 F          64.1430   82.6127   14.8399 F       1  UNL1       -0.2040
     30 C          63.8184   84.8806   13.6145 C.ar    1  UNL1        0.0951
     31 C          63.2436   85.6720   12.4774 C.ar    1  UNL1        0.1598
     32 F          63.4939   87.1484   12.3892 F       1  UNL1       -0.2026
     33 N          61.8437   85.7787   10.2913 N.pl3   1  UNL1       -0.2166
     34 H          61.6772   85.3442    9.4237 H       1  UNL1        0.1734
     35 S          61.5225   87.2322   10.4761 S.O2    1  UNL1        0.0540
     36 O          60.5425   86.8785   11.5552 O.2     1  UNL1       -0.1545
     37 O          62.5025   87.5859    9.3970 O.2     1  UNL1       -0.1545
     38 C          61.2014   88.6857   10.6608 C.3     1  UNL1        0.1724
     39 C          59.5260   90.5166   11.4297 C.3     1  UNL1        0.0019
     40 C          59.9961   89.0925   11.4558 C.3     1  UNL1        0.0273
@<TRIPOS>BOND
     1    39    40    1
     2    40    38    1
     3    38    35    1
     4    35    36    2
     5    35    37    2
     6    35    33    1
     7    33    25    1
     8    25    26   ar
     9    26    27   ar
    10    27    28   ar
    11    28    29    1
    12    28    30   ar
    13    30    23    1
    14    23    24    2
    15    23     1    1
    16     1     2   ar
    17     2     3   ar
    18     3     4   ar
    19     4     5   ar
    20     5     6   ar
    21     6     7   ar
    22     7    11    1
    23    11    12   ar
    24    12    13   ar
    25    13    14   ar
    26    14    17    1
    27    17    18    2
    28    17    19    2
    29    17    20    1
    30    20    21    1
    31    20    22    1
    32    14    15   ar
    33    15    16   ar
    34     7     8   ar
    35     8     9   ar
    36    30    31   ar
    37    31    32    1
    38    31    25   ar
    39     9     1   ar
    40     9     4    1
    41    16    11   ar
    42    33    34    1
    43     5    10    1
@<TRIPOS>MOLECULE
*****
 40 43 0 0 0
SMALL
GASTEIGER

@<TRIPOS>ATOM
      1 C          61.4543   86.4391    9.1990 C.ar    1  UNL1        0.0611
      2 C          60.1103   86.3662    8.5368 C.ar    1  UNL1        0.1037
      3 N          59.3647   87.6266    8.8616 N.ar    1  UNL1       -0.2269
      4 C          60.2478   88.4784    9.7245 C.ar    1  UNL1        0.1407
      5 N          60.0429   89.8275   10.3472 N.ar    1  UNL1       -0.3374
      6 C          61.1294   90.4427   11.1785 C.ar    1  UNL1        0.0734
      7 C          62.4209   89.7087   11.3870 C.ar    1  UNL1        0.0171
      8 C          62.6258   88.3596   10.7642 C.ar    1  UNL1        0.0046
      9 C          61.5393   87.7445    9.9330 C.ar    1  UNL1        0.0386
     10 H          59.1953   90.3092   10.2104 H       1  UNL1        0.1674
     11 C          63.5074   90.3239   12.2183 C.ar    1  UNL1        0.0015
     12 C          64.2275   91.5446   11.7271 C.ar    1  UNL1        0.0014
     13 C          65.3140   92.1599   12.5584 C.ar    1  UNL1        0.0183
     14 C          65.6804   91.5543   13.8809 C.ar    1  UNL1        0.1056
     15 C          64.9603   90.3335   14.3721 C.ar    1  UNL1        0.0183
     16 C          63.8738   89.7184   13.5408 C.ar    1  UNL1        0.0014
     17 S          66.7669   92.1695   14.7122 S.O2    1  UNL1        0.0070
     18 O          65.7455   92.6186   15.7147 O.2     1  UNL1       -0.1687
     19 O          67.7882   91.7203   13.7097 O.2     1  UNL1       -0.1687
     20 C          67.8534   92.7846   15.5435 C.3     1  UNL1        0.1339
     21 C          68.1373   94.2538   15.4386 C.3     1  UNL1        0.0257
     22 C          68.6560   91.9306   16.4798 C.3     1  UNL1        0.0257
     23 C          62.5253   85.3906    9.1378 C.2     1  UNL1        0.2015
     24 O          63.1923   85.0750    7.8320 O.2     1  UNL1       -0.2864
     25 C          62.6840   84.2581   12.9382 C.ar    1  UNL1        0.0920
     26 C          63.7372   83.1919   12.8725 C.ar    1  UNL1        0.0204
     27 C          64.3863   82.8587   11.5619 C.ar    1  UNL1        0.0312
     28 C          63.9824   83.5916   10.3171 C.ar    1  UNL1        0.1454
     29 F          64.6315   83.2583    9.0065 F       1  UNL1       -0.2040
     30 C          62.9293   84.6577   10.3828 C.ar    1  UNL1        0.0951
     31 C          62.2801   84.9909   11.6933 C.ar    1  UNL1        0.1598
     32 F          61.2270   86.0570   11.7589 F       1  UNL1       -0.2026
     33 N          62.0349   84.5913   14.2487 N.pl3   1  UNL1       -0.2166
     34 H          61.0791   84.4003   14.3873 H       1  UNL1        0.1734
     35 S          62.8420   85.2154   15.3482 S.O2    1  UNL1        0.0540
     36 O          62.2349   84.2626   16.3349 O.2     1  UNL1       -0.1545
     37 O          63.4492   86.1683   14.3616 O.2     1  UNL1       -0.1545
     38 C          63.6492   85.8397   16.4476 C.3     1  UNL1        0.1724
     39 C          63.0235   88.2732   17.1087 C.3     1  UNL1        0.0019
     40 C          63.0024   86.8018   17.3995 C.3     1  UNL1        0.0273
@<TRIPOS>BOND
     1    39    40    1
     2    40    38    1
     3    38    35    1
     4    35    36    2
     5    35    37    2
     6    35    33    1
     7    33    25    1
     8    25    26   ar
     9    26    27   ar
    10    27    28   ar
    11    28    29    1
    12    28    30   ar
    13    30    23    1
    14    23    24    2
    15    23     1    1
    16     1     2   ar
    17     2     3   ar
    18     3     4   ar
    19     4     5   ar
    20     5     6   ar
    21     6     7   ar
    22     7    11    1
    23    11    12   ar
    24    12    13   ar
    25    13    14   ar
    26    14    17    1
    27    17    18    2
    28    17    19    2
    29    17    20    1
    30    20    21    1
    31    20    22    1
    32    14    15   ar
    33    15    16   ar
    34     7     8   ar
    35     8     9   ar
    36    30    31   ar
    37    31    32    1
    38    31    25   ar
    39     9     1   ar
    40     9     4    1
    41    16    11   ar
    42    33    34    1
    43     5    10    1
@<TRIPOS>MOLECULE
*****
 40 43 0 0 0
SMALL
GASTEIGER

@<TRIPOS>ATOM
      1 C          63.4181   84.5134   14.2888 C.ar    1  UNL1        0.0611
      2 C          62.8501   83.7426   15.4435 C.ar    1  UNL1        0.1037
      3 N          62.5983   84.7064   16.5650 N.ar    1  UNL1       -0.2269
      4 C          63.0107   86.0728   16.1034 C.ar    1  UNL1        0.1407
      5 N          62.9903   87.4101   16.7823 N.ar    1  UNL1       -0.3374
      6 C          63.4766   88.6282   16.0545 C.ar    1  UNL1        0.0734
      7 C          63.9833   88.5089   14.6477 C.ar    1  UNL1        0.0171
      8 C          64.0036   87.1715   13.9687 C.ar    1  UNL1        0.0046
      9 C          63.5174   85.9535   14.6966 C.ar    1  UNL1        0.0386
     10 H          62.6578   87.4884   17.7057 H       1  UNL1        0.1674
     11 C          64.4696   89.7270   13.9198 C.ar    1  UNL1        0.0015
     12 C          65.6103   90.5270   14.4752 C.ar    1  UNL1        0.0014
     13 C          66.0966   91.7452   13.7474 C.ar    1  UNL1        0.0183
     14 C          65.4421   92.1632   12.4641 C.ar    1  UNL1        0.1056
     15 C          64.3012   91.3632   11.9087 C.ar    1  UNL1        0.0183
     16 C          63.8150   90.1451   12.6366 C.ar    1  UNL1        0.0014
     17 S          65.9283   93.3813   11.7363 S.O2    1  UNL1        0.0070
     18 O          64.9551   93.1077   10.6282 O.2     1  UNL1       -0.1687
     19 O          66.9016   93.6549   12.8443 O.2     1  UNL1       -0.1687
     20 C          66.4146   94.5994   11.0084 C.3     1  UNL1        0.1339
     21 C          67.2510   94.4504    9.7722 C.3     1  UNL1        0.0257
     22 C          66.0643   95.9666   11.5167 C.3     1  UNL1        0.0257
     23 C          63.8168   83.9440   12.9595 C.2     1  UNL1        0.2015
     24 O          64.7860   82.8011   12.8934 O.2     1  UNL1       -0.2864
     25 C          61.4892   86.0068   10.4942 C.ar    1  UNL1        0.0920
     26 C          62.1053   85.6647    9.1701 C.ar    1  UNL1        0.0204
     27 C          63.2918   84.7491    9.1090 C.ar    1  UNL1        0.0312
     28 C          63.8624   84.1755   10.3721 C.ar    1  UNL1        0.1454
     29 F          65.0489   83.2599   10.3111 F       1  UNL1       -0.2040
     30 C          63.2463   84.5176   11.6963 C.ar    1  UNL1        0.0951
     31 C          62.0598   85.4332   11.7573 C.ar    1  UNL1        0.1598
     32 F          61.4437   85.7753   13.0816 F       1  UNL1       -0.2026
     33 N          60.3027   86.9224   10.5553 N.pl3   1  UNL1       -0.2166
     34 H          59.6287   86.8082   11.2637 H       1  UNL1        0.1734
     35 S          60.1432   88.0121    9.5369 S.O2    1  UNL1        0.0540
     36 O          59.1994   87.1453    8.7572 O.2     1  UNL1       -0.1545
     37 O          61.0869   88.8790   10.3166 O.2     1  UNL1       -0.1545
     38 C          59.9837   89.1019    8.5186 C.3     1  UNL1        0.1724
     39 C          59.3173   89.8325    6.1160 C.3     1  UNL1        0.0019
     40 C          59.2821   88.8208    7.2229 C.3     1  UNL1        0.0273
@<TRIPOS>BOND
     1    39    40    1
     2    40    38    1
     3    38    35    1
     4    35    36    2
     5    35    37    2
     6    35    33    1
     7    33    25    1
     8    25    26   ar
     9    26    27   ar
    10    27    28   ar
    11    28    29    1
    12    28    30   ar
    13    30    23    1
    14    23    24    2
    15    23     1    1
    16     1     2   ar
    17     2     3   ar
    18     3     4   ar
    19     4     5   ar
    20     5     6   ar
    21     6     7   ar
    22     7    11    1
    23    11    12   ar
    24    12    13   ar
    25    13    14   ar
    26    14    17    1
    27    17    18    2
    28    17    19    2
    29    17    20    1
    30    20    21    1
    31    20    22    1
    32    14    15   ar
    33    15    16   ar
    34     7     8   ar
    35     8     9   ar
    36    30    31   ar
    37    31    32    1
    38    31    25   ar
    39     9     1   ar
    40     9     4    1
    41    16    11   ar
    42    33    34    1
    43     5    10    1
