@<TRIPOS>MOLECULE
*****
 30 33 0 0 0
SMALL
GASTEIGER

@<TRIPOS>ATOM
      1 C          61.7902   86.4977   10.7322 C.ar    1  UNL1        0.1194
      2 N          60.7953   86.5154    9.6097 N.ar    1  UNL1       -0.2208
      3 C          60.0800   87.7871    9.2616 C.ar    1  UNL1        0.2002
      4 N          60.3596   89.0410   10.0359 N.ar    1  UNL1       -0.2058
      5 C          61.3545   89.0233   11.1583 C.ar    1  UNL1        0.1695
      6 C          62.0698   87.7517   11.5064 C.ar    1  UNL1        0.1835
      7 O          63.0647   87.7338   12.6288 O.3     1  UNL1       -0.5020
      8 H          63.2393   88.5171   13.1125 H       1  UNL1        0.2924
      9 C          64.6514   81.4111   12.1249 C.3     1  UNL1        0.0310
     10 C          63.9361   82.6827   11.7767 C.ar    1  UNL1       -0.0218
     11 C          63.9505   83.1890   10.3648 C.ar    1  UNL1       -0.0042
     12 C          63.2352   84.4606   10.0166 C.ar    1  UNL1        0.0013
     13 C          62.5055   85.2261   11.0803 C.ar    1  UNL1        0.0208
     14 C          62.4910   84.7198   12.4923 C.ar    1  UNL1        0.0013
     15 C          63.2063   83.4482   12.8405 C.ar    1  UNL1       -0.0042
     16 N          61.6340   90.2772   11.9326 N.pl3   1  UNL1       -0.2948
     17 H          60.9584   90.6330   12.5540 H       1  UNL1        0.1537
     18 C          62.9430   90.9891   11.7600 C.ar    1  UNL1        0.0599
     19 C          63.3463   91.5002   10.4086 C.ar    1  UNL1        0.0157
     20 C          64.6552   92.2121   10.2360 C.ar    1  UNL1        0.0085
     21 C          65.5609   92.4130   11.4148 C.ar    1  UNL1        0.0823
     22 C          65.1576   91.9019   12.7661 C.ar    1  UNL1        0.0430
     23 C          63.8486   91.1900   12.9387 C.ar    1  UNL1        0.0712
     24 CL         63.4453   90.6789   14.2901 Cl      1  UNL1       -0.0811
     25 C          66.2490   92.2452   13.7361 C.3     1  UNL1        0.2277
     26 N          67.3268   92.9684   12.9844 N.pl3   1  UNL1       -0.2153
     27 C          66.9016   93.0721   11.5496 C.2     1  UNL1        0.3122
     28 N          67.6803   93.7210   10.4439 N.2     1  UNL1       -0.0993
     29 H          68.1660   93.3142   13.3656 H       1  UNL1        0.2926
     30 H          68.5562   94.1290   10.6325 H       1  UNL1        0.3633
@<TRIPOS>BOND
     1     9    10    1
     2    10    11   ar
     3    11    12   ar
     4    12    13   ar
     5    13     1    1
     6     1     2   ar
     7     2     3   ar
     8     3     4   ar
     9     4     5   ar
    10     5    16    1
    11    16    18    1
    12    18    19   ar
    13    19    20   ar
    14    20    21   ar
    15    21    22   ar
    16    22    23   ar
    17    23    24    1
    18    22    25    1
    19    25    26    1
    20    26    27    1
    21    27    28    2
    22     5     6   ar
    23     6     7    1
    24    13    14   ar
    25    14    15   ar
    26    15    10   ar
    27     6     1   ar
    28    23    18   ar
    29    27    21    1
    30    16    17    1
    31    26    29    1
    32    28    30    1
    33     7     8    1
@<TRIPOS>MOLECULE
*****
 30 33 0 0 0
SMALL
GASTEIGER

@<TRIPOS>ATOM
      1 C          61.6987   87.3560   10.2390 C.ar    1  UNL1        0.1194
      2 N          60.7306   87.7139    9.1506 N.ar    1  UNL1       -0.2208
      3 C          60.1330   89.0888    9.1006 C.ar    1  UNL1        0.2002
      4 N          60.5035   90.1058   10.1390 N.ar    1  UNL1       -0.2058
      5 C          61.4717   89.7480   11.2274 C.ar    1  UNL1        0.1695
      6 C          62.0693   88.3731   11.2774 C.ar    1  UNL1        0.1835
      7 O          63.0374   88.0152   12.3657 O.3     1  UNL1       -0.5020
      8 H          63.2689   88.6505   13.0144 H       1  UNL1        0.2924
      9 C          64.0891   81.8564   10.4390 C.3     1  UNL1        0.0310
     10 C          63.4915   83.2313   10.3890 C.ar    1  UNL1       -0.0218
     11 C          62.8752   83.8264   11.6202 C.ar    1  UNL1       -0.0042
     12 C          62.2776   85.2013   11.5702 C.ar    1  UNL1        0.0013
     13 C          62.2963   85.9811   10.2890 C.ar    1  UNL1        0.0208
     14 C          62.9126   85.3860    9.0578 C.ar    1  UNL1        0.0013
     15 C          63.5102   84.0112    9.1077 C.ar    1  UNL1       -0.0042
     16 N          61.8422   90.7651   12.2658 N.pl3   1  UNL1       -0.2948
     17 H          61.1384   91.2207   12.7818 H       1  UNL1        0.1537
     18 C          63.2852   91.0880   12.5180 C.ar    1  UNL1        0.0599
     19 C          63.8836   90.8409   13.8711 C.ar    1  UNL1        0.0157
     20 C          65.3265   91.1638   14.1233 C.ar    1  UNL1        0.0085
     21 C          66.1711   91.7339   13.0224 C.ar    1  UNL1        0.0823
     22 C          65.5727   91.9810   11.6694 C.ar    1  UNL1        0.0430
     23 C          64.1297   91.6581   11.4171 C.ar    1  UNL1        0.0712
     24 CL         63.5312   91.9052   10.0640 Cl      1  UNL1       -0.0811
     25 C          66.6438   92.5477   10.7853 C.3     1  UNL1        0.2277
     26 N          67.9041   92.6508   11.5919 N.pl3   1  UNL1       -0.2153
     27 C          67.6120   92.1478   12.9745 C.2     1  UNL1        0.3122
     28 N          68.5893   92.0721   14.1100 N.2     1  UNL1       -0.0993
     29 H          68.7709   92.9892   11.2703 H       1  UNL1        0.2926
     30 H          69.5188   92.3693   13.9801 H       1  UNL1        0.3633
@<TRIPOS>BOND
     1     9    10    1
     2    10    11   ar
     3    11    12   ar
     4    12    13   ar
     5    13     1    1
     6     1     2   ar
     7     2     3   ar
     8     3     4   ar
     9     4     5   ar
    10     5    16    1
    11    16    18    1
    12    18    19   ar
    13    19    20   ar
    14    20    21   ar
    15    21    22   ar
    16    22    23   ar
    17    23    24    1
    18    22    25    1
    19    25    26    1
    20    26    27    1
    21    27    28    2
    22     5     6   ar
    23     6     7    1
    24    13    14   ar
    25    14    15   ar
    26    15    10   ar
    27     6     1   ar
    28    23    18   ar
    29    27    21    1
    30    16    17    1
    31    26    29    1
    32    28    30    1
    33     7     8    1
@<TRIPOS>MOLECULE
*****
 30 33 0 0 0
SMALL
GASTEIGER

@<TRIPOS>ATOM
      1 C          61.5673   86.7164   10.4219 C.ar    1  UNL1        0.1194
      2 N          60.5320   86.8248    9.3418 N.ar    1  UNL1       -0.2208
      3 C          59.8400   88.1325    9.0947 C.ar    1  UNL1        0.2002
      4 N          60.1834   89.3319    9.9276 N.ar    1  UNL1       -0.2058
      5 C          61.2187   89.2235   11.0076 C.ar    1  UNL1        0.1695
      6 C          61.9106   87.9158   11.2547 C.ar    1  UNL1        0.1835
      7 O          62.9459   87.8073   12.3347 O.3     1  UNL1       -0.5020
      8 H          63.1604   88.5565   12.8550 H       1  UNL1        0.2924
      9 C          64.3351   81.4855   11.4102 C.3     1  UNL1        0.0310
     10 C          63.6431   82.7932   11.1631 C.ar    1  UNL1       -0.0218
     11 C          62.8238   83.4252   12.2491 C.ar    1  UNL1       -0.0042
     12 C          62.1319   84.7329   12.0020 C.ar    1  UNL1        0.0013
     13 C          62.2592   85.4087   10.6690 C.ar    1  UNL1        0.0208
     14 C          63.0785   84.7767    9.5830 C.ar    1  UNL1        0.0013
     15 C          63.7705   83.4691    9.8300 C.ar    1  UNL1       -0.0042
     16 N          61.5620   90.4228   11.8405 N.pl3   1  UNL1       -0.2948
     17 H          60.9110   90.7735   12.4905 H       1  UNL1        0.1537
     18 C          62.8972   91.0879   11.6831 C.ar    1  UNL1        0.0599
     19 C          63.3220   91.6091   10.3423 C.ar    1  UNL1        0.0157
     20 C          64.6573   92.2742   10.1849 C.ar    1  UNL1        0.0085
     21 C          65.5677   92.4181   11.3684 C.ar    1  UNL1        0.0823
     22 C          65.1429   91.8969   12.7091 C.ar    1  UNL1        0.0430
     23 C          63.8076   91.2317   12.8666 C.ar    1  UNL1        0.0712
     24 CL         63.3827   90.7105   14.2074 Cl      1  UNL1       -0.0811
     25 C          66.2447   92.1800   13.6868 C.3     1  UNL1        0.2277
     26 N          67.3504   92.8761   12.9503 N.pl3   1  UNL1       -0.2153
     27 C          66.9321   93.0233   11.5174 C.2     1  UNL1        0.3122
     28 N          67.7368   93.6634   10.4252 N.2     1  UNL1       -0.0993
     29 H          68.2014   93.1827   13.3391 H       1  UNL1        0.2926
     30 H          68.6271   94.0343   10.6226 H       1  UNL1        0.3633
@<TRIPOS>BOND
     1     9    10    1
     2    10    11   ar
     3    11    12   ar
     4    12    13   ar
     5    13     1    1
     6     1     2   ar
     7     2     3   ar
     8     3     4   ar
     9     4     5   ar
    10     5    16    1
    11    16    18    1
    12    18    19   ar
    13    19    20   ar
    14    20    21   ar
    15    21    22   ar
    16    22    23   ar
    17    23    24    1
    18    22    25    1
    19    25    26    1
    20    26    27    1
    21    27    28    2
    22     5     6   ar
    23     6     7    1
    24    13    14   ar
    25    14    15   ar
    26    15    10   ar
    27     6     1   ar
    28    23    18   ar
    29    27    21    1
    30    16    17    1
    31    26    29    1
    32    28    30    1
    33     7     8    1
@<TRIPOS>MOLECULE
*****
 30 33 0 0 0
SMALL
GASTEIGER

@<TRIPOS>ATOM
      1 C          63.7683   84.6428   13.1026 C.ar    1  UNL1        0.1194
      2 N          64.4717   84.5912   14.4264 N.ar    1  UNL1       -0.2208
      3 C          64.6900   85.8518   15.2094 C.ar    1  UNL1        0.2002
      4 N          64.2048   87.1641   14.6686 N.ar    1  UNL1       -0.2058
      5 C          63.5013   87.2158   13.3448 C.ar    1  UNL1        0.1695
      6 C          63.2831   85.9551   12.5618 C.ar    1  UNL1        0.1835
      7 O          62.5796   86.0066   11.2380 O.3     1  UNL1       -0.5020
      8 H          62.2765   86.8264   10.9002 H       1  UNL1        0.2924
      9 C          62.8953   79.6001    9.9706 C.3     1  UNL1        0.0310
     10 C          63.1135   80.8608   10.7536 C.ar    1  UNL1       -0.0218
     11 C          63.9779   81.9513   10.1937 C.ar    1  UNL1       -0.0042
     12 C          64.1961   83.2120   10.9767 C.ar    1  UNL1        0.0013
     13 C          63.5500   83.3821   12.3196 C.ar    1  UNL1        0.0208
     14 C          62.6856   82.2916   12.8796 C.ar    1  UNL1        0.0013
     15 C          62.4674   81.0310   12.0967 C.ar    1  UNL1       -0.0042
     16 N          63.0161   88.5281   12.8040 N.pl3   1  UNL1       -0.2948
     17 H          62.1463   88.5803   12.3459 H       1  UNL1        0.1537
     18 C          63.8562   89.7607   12.9613 C.ar    1  UNL1        0.0599
     19 C          64.6188   89.9915   14.2322 C.ar    1  UNL1        0.0157
     20 C          65.4589   91.2242   14.3894 C.ar    1  UNL1        0.0085
     21 C          65.5363   92.2261   13.2757 C.ar    1  UNL1        0.0823
     22 C          64.7737   91.9954   12.0049 C.ar    1  UNL1        0.0430
     23 C          63.9336   90.7626   11.8476 C.ar    1  UNL1        0.0712
     24 CL         63.1709   90.5318   10.5768 Cl      1  UNL1       -0.0811
     25 C          65.0418   93.1511   11.0871 C.3     1  UNL1        0.2277
     26 N          65.9701   94.0960   11.7906 N.pl3   1  UNL1       -0.2153
     27 C          66.2758   93.5244   13.1433 C.2     1  UNL1        0.3122
     28 N          67.1648   94.1426   14.1814 N.2     1  UNL1       -0.0993
     29 H          66.3178   94.9428   11.4282 H       1  UNL1        0.2926
     30 H          67.6090   95.0024   14.0003 H       1  UNL1        0.3633
@<TRIPOS>BOND
     1     9    10    1
     2    10    11   ar
     3    11    12   ar
     4    12    13   ar
     5    13     1    1
     6     1     2   ar
     7     2     3   ar
     8     3     4   ar
     9     4     5   ar
    10     5    16    1
    11    16    18    1
    12    18    19   ar
    13    19    20   ar
    14    20    21   ar
    15    21    22   ar
    16    22    23   ar
    17    23    24    1
    18    22    25    1
    19    25    26    1
    20    26    27    1
    21    27    28    2
    22     5     6   ar
    23     6     7    1
    24    13    14   ar
    25    14    15   ar
    26    15    10   ar
    27     6     1   ar
    28    23    18   ar
    29    27    21    1
    30    16    17    1
    31    26    29    1
    32    28    30    1
    33     7     8    1
@<TRIPOS>MOLECULE
*****
 30 33 0 0 0
SMALL
GASTEIGER

@<TRIPOS>ATOM
      1 C          63.8320   85.2101   13.1492 C.ar    1  UNL1        0.1194
      2 N          64.7557   85.2262   14.3309 N.ar    1  UNL1       -0.2208
      3 C          64.9832   86.5012   15.0877 C.ar    1  UNL1        0.2002
      4 N          64.2869   87.7600   14.6628 N.ar    1  UNL1       -0.2058
      5 C          63.3632   87.7439   13.4811 C.ar    1  UNL1        0.1695
      6 C          63.1357   86.4690   12.7243 C.ar    1  UNL1        0.1835
      7 O          62.2120   86.4528   11.5426 O.3     1  UNL1       -0.5020
      8 H          61.7771   87.2391   11.2771 H       1  UNL1        0.2924
      9 C          62.9222   80.1103   10.1218 C.3     1  UNL1        0.0310
     10 C          63.1496   81.3853   10.8787 C.ar    1  UNL1       -0.0218
     11 C          62.4392   81.6231   12.1782 C.ar    1  UNL1       -0.0042
     12 C          62.6666   82.8980   12.9350 C.ar    1  UNL1        0.0013
     13 C          63.6045   83.9352   12.3924 C.ar    1  UNL1        0.0208
     14 C          64.3150   83.6974   11.0929 C.ar    1  UNL1        0.0013
     15 C          64.0876   82.4226   10.3360 C.ar    1  UNL1       -0.0042
     16 N          62.6669   89.0028   13.0562 N.pl3   1  UNL1       -0.2948
     17 H          61.6938   89.0916   13.1761 H       1  UNL1        0.1537
     18 C          63.4533   90.1263   12.4487 C.ar    1  UNL1        0.0599
     19 C          63.3235   90.4268   10.9848 C.ar    1  UNL1        0.0157
     20 C          64.1099   91.5504   10.3772 C.ar    1  UNL1        0.0085
     21 C          65.0261   92.3735   11.2335 C.ar    1  UNL1        0.0823
     22 C          65.1559   92.0730   12.6973 C.ar    1  UNL1        0.0430
     23 C          64.3695   90.9494   13.3049 C.ar    1  UNL1        0.0712
     24 CL         64.4993   90.6488   14.7688 Cl      1  UNL1       -0.0811
     25 C          66.1309   93.0490   13.2862 C.3     1  UNL1        0.2277
     26 N          66.6036   93.9527   12.1864 N.pl3   1  UNL1       -0.2153
     27 C          65.9209   93.5352   10.9177 C.2     1  UNL1        0.3122
     28 N          66.1012   94.1684    9.5699 N.2     1  UNL1       -0.0993
     29 H          67.2488   94.6903   12.2806 H       1  UNL1        0.2926
     30 H          66.7145   94.9309    9.4623 H       1  UNL1        0.3633
@<TRIPOS>BOND
     1     9    10    1
     2    10    11   ar
     3    11    12   ar
     4    12    13   ar
     5    13     1    1
     6     1     2   ar
     7     2     3   ar
     8     3     4   ar
     9     4     5   ar
    10     5    16    1
    11    16    18    1
    12    18    19   ar
    13    19    20   ar
    14    20    21   ar
    15    21    22   ar
    16    22    23   ar
    17    23    24    1
    18    22    25    1
    19    25    26    1
    20    26    27    1
    21    27    28    2
    22     5     6   ar
    23     6     7    1
    24    13    14   ar
    25    14    15   ar
    26    15    10   ar
    27     6     1   ar
    28    23    18   ar
    29    27    21    1
    30    16    17    1
    31    26    29    1
    32    28    30    1
    33     7     8    1
@<TRIPOS>MOLECULE
*****
 30 33 0 0 0
SMALL
GASTEIGER

@<TRIPOS>ATOM
      1 C          65.1367   91.6688   12.6883 C.ar    1  UNL1        0.1194
      2 N          65.0147   92.5095   11.4520 N.ar    1  UNL1       -0.2208
      3 C          63.9518   92.2034   10.4388 C.ar    1  UNL1        0.2002
      4 N          63.0110   91.0567   10.6619 N.ar    1  UNL1       -0.2058
      5 C          63.1330   90.2160   11.8982 C.ar    1  UNL1        0.1695
      6 C          64.1959   90.5221   12.9114 C.ar    1  UNL1        0.1835
      7 O          64.3179   89.6815   14.1476 O.3     1  UNL1       -0.5020
      8 H          63.7302   88.9651   14.2870 H       1  UNL1        0.2924
      9 C          69.3884   92.8930   16.7411 C.3     1  UNL1        0.0310
     10 C          68.3255   92.5870   15.7279 C.ar    1  UNL1       -0.0218
     11 C          66.8777   92.7310   16.0928 C.ar    1  UNL1       -0.0042
     12 C          65.8148   92.4249   15.0796 C.ar    1  UNL1        0.0013
     13 C          66.1996   91.9748   13.7015 C.ar    1  UNL1        0.0208
     14 C          67.6474   91.8309   13.3365 C.ar    1  UNL1        0.0013
     15 C          68.7103   92.1369   14.3496 C.ar    1  UNL1       -0.0042
     16 N          62.1921   89.0693   12.1212 N.pl3   1  UNL1       -0.2948
     17 H          61.8774   88.8605   13.0304 H       1  UNL1        0.1537
     18 C          61.7307   88.2407   10.9591 C.ar    1  UNL1        0.0599
     19 C          62.4366   86.9604   10.6237 C.ar    1  UNL1        0.0157
     20 C          61.9752   86.1318    9.4615 C.ar    1  UNL1        0.0085
     21 C          60.8079   86.5836    8.6348 C.ar    1  UNL1        0.0823
     22 C          60.1020   87.8639    8.9702 C.ar    1  UNL1        0.0430
     23 C          60.5634   88.6925   10.1324 C.ar    1  UNL1        0.0712
     24 CL         59.8576   89.9729   10.4679 Cl      1  UNL1       -0.0811
     25 C          58.9896   88.0526    7.9818 C.3     1  UNL1        0.2277
     26 N          59.0080   86.8890    7.0356 N.pl3   1  UNL1       -0.2153
     27 C          60.1317   85.9811    7.4391 C.2     1  UNL1        0.3122
     28 N          60.5125   84.6962    6.7652 N.2     1  UNL1       -0.0993
     29 H          58.3908   86.7463    6.2819 H       1  UNL1        0.2926
     30 H          60.0051   84.3818    5.9823 H       1  UNL1        0.3633
@<TRIPOS>BOND
     1     9    10    1
     2    10    11   ar
     3    11    12   ar
     4    12    13   ar
     5    13     1    1
     6     1     2   ar
     7     2     3   ar
     8     3     4   ar
     9     4     5   ar
    10     5    16    1
    11    16    18    1
    12    18    19   ar
    13    19    20   ar
    14    20    21   ar
    15    21    22   ar
    16    22    23   ar
    17    23    24    1
    18    22    25    1
    19    25    26    1
    20    26    27    1
    21    27    28    2
    22     5     6   ar
    23     6     7    1
    24    13    14   ar
    25    14    15   ar
    26    15    10   ar
    27     6     1   ar
    28    23    18   ar
    29    27    21    1
    30    16    17    1
    31    26    29    1
    32    28    30    1
    33     7     8    1
@<TRIPOS>MOLECULE
*****
 30 33 0 0 0
SMALL
GASTEIGER

@<TRIPOS>ATOM
      1 C          62.4773   86.0887   10.4012 C.ar    1  UNL1        0.1194
      2 N          62.9880   85.1249   11.4309 N.ar    1  UNL1       -0.2208
      3 C          63.2829   85.6007   12.8225 C.ar    1  UNL1        0.2002
      4 N          63.0672   87.0403   13.1844 N.ar    1  UNL1       -0.2058
      5 C          62.5566   88.0041   12.1547 C.ar    1  UNL1        0.1695
      6 C          62.2616   87.5283   10.7631 C.ar    1  UNL1        0.1835
      7 O          61.7510   88.4920    9.7333 O.3     1  UNL1       -0.5020
      8 H          61.6162   89.3913    9.9593 H       1  UNL1        0.2924
      9 C          61.2977   84.1853    4.8346 C.3     1  UNL1        0.0310
     10 C          61.5926   84.6611    6.2263 C.ar    1  UNL1       -0.0218
     11 C          60.5191   85.3281    7.0342 C.ar    1  UNL1       -0.0042
     12 C          60.8140   85.8039    8.4258 C.ar    1  UNL1        0.0013
     13 C          62.1824   85.6128    9.0096 C.ar    1  UNL1        0.0208
     14 C          63.2559   84.9459    8.2017 C.ar    1  UNL1        0.0013
     15 C          62.9611   84.4700    6.8101 C.ar    1  UNL1       -0.0042
     16 N          62.3409   89.4437   12.5166 N.pl3   1  UNL1       -0.2948
     17 H          61.4282   89.8115   12.5498 H       1  UNL1        0.1537
     18 C          63.5156   90.3230   12.8279 C.ar    1  UNL1        0.0599
     19 C          64.2107   90.2049   14.1519 C.ar    1  UNL1        0.0157
     20 C          65.3854   91.0841   14.4632 C.ar    1  UNL1        0.0085
     21 C          65.8651   92.0814   13.4505 C.ar    1  UNL1        0.0823
     22 C          65.1700   92.1994   12.1267 C.ar    1  UNL1        0.0430
     23 C          63.9952   91.3202   11.8153 C.ar    1  UNL1        0.0712
     24 CL         63.3000   91.4382   10.4913 Cl      1  UNL1       -0.0811
     25 C          65.8636   93.2663   11.3325 C.3     1  UNL1        0.2277
     26 N          66.9873   93.8076   12.1655 N.pl3   1  UNL1       -0.2153
     27 C          66.9883   93.0753   13.4746 C.2     1  UNL1        0.3122
     28 N          67.9446   93.2978   14.6087 N.2     1  UNL1       -0.0993
     29 H          67.6142   94.5186   11.8998 H       1  UNL1        0.2926
     30 H          68.6526   93.9772   14.5294 H       1  UNL1        0.3633
@<TRIPOS>BOND
     1     9    10    1
     2    10    11   ar
     3    11    12   ar
     4    12    13   ar
     5    13     1    1
     6     1     2   ar
     7     2     3   ar
     8     3     4   ar
     9     4     5   ar
    10     5    16    1
    11    16    18    1
    12    18    19   ar
    13    19    20   ar
    14    20    21   ar
    15    21    22   ar
    16    22    23   ar
    17    23    24    1
    18    22    25    1
    19    25    26    1
    20    26    27    1
    21    27    28    2
    22     5     6   ar
    23     6     7    1
    24    13    14   ar
    25    14    15   ar
    26    15    10   ar
    27     6     1   ar
    28    23    18   ar
    29    27    21    1
    30    16    17    1
    31    26    29    1
    32    28    30    1
    33     7     8    1
@<TRIPOS>MOLECULE
*****
 30 33 0 0 0
SMALL
GASTEIGER

@<TRIPOS>ATOM
      1 C          62.4526   86.2188   10.4023 C.ar    1  UNL1        0.1194
      2 N          63.0016   85.2985   11.4518 N.ar    1  UNL1       -0.2208
      3 C          63.2940   85.8196   12.8277 C.ar    1  UNL1        0.2002
      4 N          63.0375   87.2610   13.1539 N.ar    1  UNL1       -0.2058
      5 C          62.4885   88.1814   12.1044 C.ar    1  UNL1        0.1695
      6 C          62.1961   87.6603   10.7285 C.ar    1  UNL1        0.1835
      7 O          61.6471   88.5805    9.6789 O.3     1  UNL1       -0.5020
      8 H          61.4869   89.4809    9.8827 H       1  UNL1        0.2924
      9 C          61.2828   84.1344    4.8989 C.3     1  UNL1        0.0310
     10 C          61.5752   84.6555    6.2747 C.ar    1  UNL1       -0.0218
     11 C          62.9468   84.4968    6.8610 C.ar    1  UNL1       -0.0042
     12 C          63.2392   85.0179    8.2368 C.ar    1  UNL1        0.0013
     13 C          62.1602   85.6977    9.0264 C.ar    1  UNL1        0.0208
     14 C          60.7886   85.8564    8.4402 C.ar    1  UNL1        0.0013
     15 C          60.4961   85.3353    7.0644 C.ar    1  UNL1       -0.0042
     16 N          62.2320   89.6228   12.4306 N.pl3   1  UNL1       -0.2948
     17 H          61.3549   89.8995   12.7819 H       1  UNL1        0.1537
     18 C          63.3118   90.6427   12.2218 C.ar    1  UNL1        0.0599
     19 C          63.5303   91.2358   10.8614 C.ar    1  UNL1        0.0157
     20 C          64.6102   92.2557   10.6525 C.ar    1  UNL1        0.0085
     21 C          65.4715   92.6826   11.8040 C.ar    1  UNL1        0.0823
     22 C          65.2531   92.0896   13.1643 C.ar    1  UNL1        0.0430
     23 C          64.1732   91.0696   13.3732 C.ar    1  UNL1        0.0712
     24 CL         63.9546   90.4765   14.7336 Cl      1  UNL1       -0.0811
     25 C          66.2514   92.7007   14.1022 C.3     1  UNL1        0.2277
     26 N          67.0869   93.6715   13.3216 N.pl3   1  UNL1       -0.2153
     27 C          66.6050   93.6603   11.9012 C.2     1  UNL1        0.3122
     28 N          67.1591   94.4825   10.7756 N.2     1  UNL1       -0.0993
     29 H          67.8225   94.2197   13.6788 H       1  UNL1        0.2926
     30 H          67.9084   95.0997   10.9394 H       1  UNL1        0.3633
@<TRIPOS>BOND
     1     9    10    1
     2    10    11   ar
     3    11    12   ar
     4    12    13   ar
     5    13     1    1
     6     1     2   ar
     7     2     3   ar
     8     3     4   ar
     9     4     5   ar
    10     5    16    1
    11    16    18    1
    12    18    19   ar
    13    19    20   ar
    14    20    21   ar
    15    21    22   ar
    16    22    23   ar
    17    23    24    1
    18    22    25    1
    19    25    26    1
    20    26    27    1
    21    27    28    2
    22     5     6   ar
    23     6     7    1
    24    13    14   ar
    25    14    15   ar
    26    15    10   ar
    27     6     1   ar
    28    23    18   ar
    29    27    21    1
    30    16    17    1
    31    26    29    1
    32    28    30    1
    33     7     8    1
@<TRIPOS>MOLECULE
*****
 30 33 0 0 0
SMALL
GASTEIGER

@<TRIPOS>ATOM
      1 C          62.6061   85.6723   11.1052 C.ar    1  UNL1        0.1194
      2 N          62.3308   85.6973    9.6309 N.ar    1  UNL1       -0.2208
      3 C          61.9607   86.9863    8.9589 C.ar    1  UNL1        0.2002
      4 N          61.8659   88.2502    9.7612 N.ar    1  UNL1       -0.2058
      5 C          62.1412   88.2251   11.2355 C.ar    1  UNL1        0.1695
      6 C          62.5113   86.9361   11.9075 C.ar    1  UNL1        0.1835
      7 O          62.7866   86.9110   13.3818 O.3     1  UNL1       -0.5020
      8 H          62.7274   87.7005   13.8829 H       1  UNL1        0.2924
      9 C          64.0864   80.5164   13.7933 C.3     1  UNL1        0.0310
     10 C          63.7163   81.8053   13.1213 C.ar    1  UNL1       -0.0218
     11 C          62.7733   82.7582   13.7941 C.ar    1  UNL1       -0.0042
     12 C          62.4032   84.0471   13.1221 C.ar    1  UNL1        0.0013
     13 C          62.9761   84.3833   11.7773 C.ar    1  UNL1        0.0208
     14 C          63.9192   83.4304   11.1044 C.ar    1  UNL1        0.0013
     15 C          64.2893   82.1415   11.7764 C.ar    1  UNL1       -0.0042
     16 N          62.0464   89.4890   12.0377 N.pl3   1  UNL1       -0.2948
     17 H          61.1703   89.8048   12.3570 H       1  UNL1        0.1537
     18 C          63.2865   90.2716   12.3535 C.ar    1  UNL1        0.0599
     19 C          63.9977   90.0563   13.6565 C.ar    1  UNL1        0.0157
     20 C          65.2377   90.8389   13.9723 C.ar    1  UNL1        0.0085
     21 C          65.7665   91.8369   12.9851 C.ar    1  UNL1        0.0823
     22 C          65.0553   92.0523   11.6823 C.ar    1  UNL1        0.0430
     23 C          63.8152   91.2696   11.3664 C.ar    1  UNL1        0.0712
     24 CL         63.1039   91.4849   10.0634 Cl      1  UNL1       -0.0811
     25 C          65.8067   93.0965   10.9110 C.3     1  UNL1        0.2277
     26 N          66.9823   93.5266   11.7373 N.pl3   1  UNL1       -0.2153
     27 C          66.9576   92.7481   13.0192 C.2     1  UNL1        0.3122
     28 N          67.9496   92.8610   14.1386 N.2     1  UNL1       -0.0993
     29 H          67.6526   94.2013   11.4829 H       1  UNL1        0.2926
     30 H          68.7023   93.4916   14.0676 H       1  UNL1        0.3633
@<TRIPOS>BOND
     1     9    10    1
     2    10    11   ar
     3    11    12   ar
     4    12    13   ar
     5    13     1    1
     6     1     2   ar
     7     2     3   ar
     8     3     4   ar
     9     4     5   ar
    10     5    16    1
    11    16    18    1
    12    18    19   ar
    13    19    20   ar
    14    20    21   ar
    15    21    22   ar
    16    22    23   ar
    17    23    24    1
    18    22    25    1
    19    25    26    1
    20    26    27    1
    21    27    28    2
    22     5     6   ar
    23     6     7    1
    24    13    14   ar
    25    14    15   ar
    26    15    10   ar
    27     6     1   ar
    28    23    18   ar
    29    27    21    1
    30    16    17    1
    31    26    29    1
    32    28    30    1
    33     7     8    1
