@<TRIPOS>MOLECULE
*****
 37 40 0 0 0
SMALL
GASTEIGER

@<TRIPOS>ATOM
      1 C          63.9510   86.6338   15.5153 C.ar    1  UNL1        0.0611
      2 C          63.1954   86.2653   16.7576 C.ar    1  UNL1        0.1037
      3 N          62.7679   87.5342   17.4336 N.ar    1  UNL1       -0.2269
      4 C          63.2592   88.6870   16.6091 C.ar    1  UNL1        0.1407
      5 N          63.1352   90.1714   16.7848 N.ar    1  UNL1       -0.3374
      6 C          63.7425   91.0994   15.7748 C.ar    1  UNL1        0.0735
      7 C          64.4737   90.5430   14.5892 C.ar    1  UNL1        0.0186
      8 C          64.5977   89.0585   14.4136 C.ar    1  UNL1        0.0047
      9 C          63.9904   88.1305   15.4235 C.ar    1  UNL1        0.0386
     10 H          62.6553   90.5367   17.5629 H       1  UNL1        0.1674
     11 C          65.0810   91.4710   13.5793 C.ar    1  UNL1        0.0207
     12 C          64.4819   91.5838   12.2087 C.ar    1  UNL1        0.0045
     13 C          65.0892   92.5119   11.1988 C.ar    1  UNL1        0.0343
     14 C          66.2955   93.3272   11.5594 C.ar    1  UNL1        0.1318
     15 N          66.8946   93.2144   12.9300 N.ar    1  UNL1       -0.2292
     16 C          66.2873   92.2863   13.9399 C.ar    1  UNL1        0.1003
     17 N          66.9028   94.2552   10.5496 N.pl3   1  UNL1       -0.2897
     18 C          66.6200   95.7267   10.6178 C.3     1  UNL1        0.1136
     19 C          67.7929   93.7118    9.4714 C.3     1  UNL1        0.1136
     20 C          64.5603   85.6742   14.5366 C.2     1  UNL1        0.2015
     21 O          65.9801   85.2238   14.7124 O.2     1  UNL1       -0.2864
     22 C          62.4089   85.6140   11.2021 C.ar    1  UNL1        0.0920
     23 C          62.1281   84.1462   11.0724 C.ar    1  UNL1        0.0204
     24 C          62.6579   83.1878   12.0975 C.ar    1  UNL1        0.0312
     25 C          63.4686   83.6970   13.2521 C.ar    1  UNL1        0.1454
     26 F          63.9985   82.7386   14.2772 F       1  UNL1       -0.2040
     27 C          63.7495   85.1648   13.3818 C.ar    1  UNL1        0.0951
     28 C          63.2197   86.1232   12.3568 C.ar    1  UNL1        0.1598
     29 F          63.5006   87.5910   12.4865 F       1  UNL1       -0.2026
     30 N          61.8791   86.5724   10.1771 N.pl3   1  UNL1       -0.2166
     31 H          61.7459   87.5194   10.4110 H       1  UNL1        0.1734
     32 S          61.5522   86.0880    8.7956 S.O2    1  UNL1        0.0540
     33 O          63.0107   85.8582    8.5311 O.2     1  UNL1       -0.1545
     34 O          60.0937   86.3178    9.0601 O.2     1  UNL1       -0.1545
     35 C          61.2252   85.6036    7.4142 C.3     1  UNL1        0.1724
     36 C          61.9422   84.3229    5.2703 C.3     1  UNL1        0.0019
     37 C          62.1352   84.6298    6.7258 C.3     1  UNL1        0.0273
@<TRIPOS>BOND
     1    36    37    1
     2    37    35    1
     3    35    32    1
     4    32    33    2
     5    32    34    2
     6    32    30    1
     7    30    22    1
     8    22    23   ar
     9    23    24   ar
    10    24    25   ar
    11    25    26    1
    12    25    27   ar
    13    27    20    1
    14    20    21    2
    15    20     1    1
    16     1     2   ar
    17     2     3   ar
    18     3     4   ar
    19     4     5   ar
    20     5     6   ar
    21     6     7   ar
    22     7    11    1
    23    11    12   ar
    24    12    13   ar
    25    13    14   ar
    26    14    17    1
    27    17    18    1
    28    17    19    1
    29    14    15   ar
    30    15    16   ar
    31     7     8   ar
    32     8     9   ar
    33    27    28   ar
    34    28    29    1
    35    28    22   ar
    36     9     1   ar
    37     9     4    1
    38    16    11   ar
    39    30    31    1
    40     5    10    1
@<TRIPOS>MOLECULE
*****
 37 40 0 0 0
SMALL
GASTEIGER

@<TRIPOS>ATOM
      1 C          64.0799   86.6179   15.6122 C.ar    1  UNL1        0.0611
      2 C          63.2554   86.3045   16.8255 C.ar    1  UNL1        0.1037
      3 N          62.7451   87.5988   17.3861 N.ar    1  UNL1       -0.2269
      4 C          63.2542   88.7122   16.5194 C.ar    1  UNL1        0.1407
      5 N          63.0731   90.1996   16.5869 N.ar    1  UNL1       -0.3374
      6 C          63.7170   91.0809   15.5580 C.ar    1  UNL1        0.0735
      7 C          64.5420   90.4747   14.4616 C.ar    1  UNL1        0.0186
      8 C          64.7231   88.9873   14.3942 C.ar    1  UNL1        0.0047
      9 C          64.0791   88.1060   15.4231 C.ar    1  UNL1        0.0386
     10 H          62.5316   90.5975   17.3064 H       1  UNL1        0.1674
     11 C          65.1859   91.3561   13.4327 C.ar    1  UNL1        0.0207
     12 C          64.4744   91.6495   12.1453 C.ar    1  UNL1        0.0045
     13 C          65.1183   92.5308   11.1163 C.ar    1  UNL1        0.0343
     14 C          66.4738   93.1188   11.3750 C.ar    1  UNL1        0.1318
     15 N          67.1854   92.8254   12.6625 N.ar    1  UNL1       -0.2292
     16 C          66.5414   91.9441   13.6913 C.ar    1  UNL1        0.1003
     17 N          67.1178   94.0002   10.3461 N.pl3   1  UNL1       -0.2897
     18 C          66.8239   95.4709   10.3287 C.3     1  UNL1        0.1136
     19 C          68.0556   93.4107    9.3347 C.3     1  UNL1        0.1136
     20 C          64.7819   85.6188   14.7411 C.2     1  UNL1        0.2015
     21 O          66.2723   85.4703   14.8210 O.2     1  UNL1       -0.2864
     22 C          62.6049   84.5284   11.6071 C.ar    1  UNL1        0.0920
     23 C          62.4165   83.0669   11.8875 C.ar    1  UNL1        0.0204
     24 C          63.0165   82.4561   13.1191 C.ar    1  UNL1        0.0312
     25 C          63.8050   83.3067   14.0703 C.ar    1  UNL1        0.1454
     26 F          64.4051   82.6958   15.3018 F       1  UNL1       -0.2040
     27 C          63.9934   84.7681   13.7898 C.ar    1  UNL1        0.0951
     28 C          63.3933   85.3790   12.5583 C.ar    1  UNL1        0.1598
     29 F          63.5818   86.8405   12.2779 F       1  UNL1       -0.2026
     30 N          62.0048   85.1392   10.3755 N.pl3   1  UNL1       -0.2166
     31 H          61.8459   84.5842    9.5781 H       1  UNL1        0.1734
     32 S          61.6469   86.5958   10.3589 S.O2    1  UNL1        0.0540
     33 O          60.8232   86.4075   11.5983 O.2     1  UNL1       -0.1545
     34 O          62.4705   86.7841    9.1195 O.2     1  UNL1       -0.1545
     35 C          61.2890   88.0524   10.3422 C.3     1  UNL1        0.1724
     36 C          62.0135   90.5294   10.0426 C.3     1  UNL1        0.0019
     37 C          62.3700   89.0895   10.2651 C.3     1  UNL1        0.0273
@<TRIPOS>BOND
     1    36    37    1
     2    37    35    1
     3    35    32    1
     4    32    33    2
     5    32    34    2
     6    32    30    1
     7    30    22    1
     8    22    23   ar
     9    23    24   ar
    10    24    25   ar
    11    25    26    1
    12    25    27   ar
    13    27    20    1
    14    20    21    2
    15    20     1    1
    16     1     2   ar
    17     2     3   ar
    18     3     4   ar
    19     4     5   ar
    20     5     6   ar
    21     6     7   ar
    22     7    11    1
    23    11    12   ar
    24    12    13   ar
    25    13    14   ar
    26    14    17    1
    27    17    18    1
    28    17    19    1
    29    14    15   ar
    30    15    16   ar
    31     7     8   ar
    32     8     9   ar
    33    27    28   ar
    34    28    29    1
    35    28    22   ar
    36     9     1   ar
    37     9     4    1
    38    16    11   ar
    39    30    31    1
    40     5    10    1
@<TRIPOS>MOLECULE
*****
 37 40 0 0 0
SMALL
GASTEIGER

@<TRIPOS>ATOM
      1 C          61.4819   86.4347    9.2210 C.ar    1  UNL1        0.0611
      2 C          60.1406   86.3594    8.5537 C.ar    1  UNL1        0.1037
      3 N          59.3923   87.6194    8.8738 N.ar    1  UNL1       -0.2269
      4 C          60.2711   88.4734    9.7389 C.ar    1  UNL1        0.1407
      5 N          60.0622   89.8231   10.3590 N.ar    1  UNL1       -0.3374
      6 C          61.1447   90.4406   11.1937 C.ar    1  UNL1        0.0735
      7 C          62.4361   89.7084   11.4083 C.ar    1  UNL1        0.0186
      8 C          62.6451   88.3587   10.7882 C.ar    1  UNL1        0.0047
      9 C          61.5625   87.7412    9.9535 C.ar    1  UNL1        0.0386
     10 H          59.2146   90.3037   10.2181 H       1  UNL1        0.1674
     11 C          63.5187   90.3260   12.2430 C.ar    1  UNL1        0.0207
     12 C          63.8877   89.7167   13.5630 C.ar    1  UNL1        0.0045
     13 C          64.9703   90.3343   14.3978 C.ar    1  UNL1        0.0343
     14 C          65.6838   91.5612   13.9124 C.ar    1  UNL1        0.1318
     15 N          65.3147   92.1706   12.5923 N.ar    1  UNL1       -0.2292
     16 C          64.2322   91.5530   11.7577 C.ar    1  UNL1        0.1003
     17 N          66.7663   92.1788   14.7471 N.pl3   1  UNL1       -0.2897
     18 C          66.4490   92.7094   16.1137 C.3     1  UNL1        0.1136
     19 C          68.1661   92.2658   14.2151 C.3     1  UNL1        0.1136
     20 C          62.5542   85.3873    9.1656 C.2     1  UNL1        0.2015
     21 O          63.2460   85.0900    7.8683 O.2     1  UNL1       -0.2864
     22 C          62.6637   84.2231   12.9581 C.ar    1  UNL1        0.0920
     23 C          63.6962   83.1370   12.8915 C.ar    1  UNL1        0.0204
     24 C          64.3480   82.8011   11.5830 C.ar    1  UNL1        0.0312
     25 C          63.9674   83.5511   10.3410 C.ar    1  UNL1        0.1454
     26 F          64.6193   83.2151    9.0325 F       1  UNL1       -0.2040
     27 C          62.9349   84.6372   10.4076 C.ar    1  UNL1        0.0951
     28 C          62.2831   84.9731   11.7161 C.ar    1  UNL1        0.1598
     29 F          61.2506   86.0592   11.7826 F       1  UNL1       -0.2026
     30 N          62.0118   84.5590   14.2666 N.pl3   1  UNL1       -0.2166
     31 H          61.0584   84.3580   14.4076 H       1  UNL1        0.1734
     32 S          62.8126   85.2013   15.3604 S.O2    1  UNL1        0.0540
     33 O          62.1776   84.2846   16.3636 O.2     1  UNL1       -0.1545
     34 O          63.4476   86.1180   14.3572 O.2     1  UNL1       -0.1545
     35 C          63.6134   85.8436   16.4540 C.3     1  UNL1        0.1724
     36 C          63.0325   88.2841   17.1299 C.3     1  UNL1        0.0019
     37 C          62.9575   86.8097   17.3955 C.3     1  UNL1        0.0273
@<TRIPOS>BOND
     1    36    37    1
     2    37    35    1
     3    35    32    1
     4    32    33    2
     5    32    34    2
     6    32    30    1
     7    30    22    1
     8    22    23   ar
     9    23    24   ar
    10    24    25   ar
    11    25    26    1
    12    25    27   ar
    13    27    20    1
    14    20    21    2
    15    20     1    1
    16     1     2   ar
    17     2     3   ar
    18     3     4   ar
    19     4     5   ar
    20     5     6   ar
    21     6     7   ar
    22     7    11    1
    23    11    12   ar
    24    12    13   ar
    25    13    14   ar
    26    14    17    1
    27    17    18    1
    28    17    19    1
    29    14    15   ar
    30    15    16   ar
    31     7     8   ar
    32     8     9   ar
    33    27    28   ar
    34    28    29    1
    35    28    22   ar
    36     9     1   ar
    37     9     4    1
    38    16    11   ar
    39    30    31    1
    40     5    10    1
@<TRIPOS>MOLECULE
*****
 37 40 0 0 0
SMALL
GASTEIGER

@<TRIPOS>ATOM
      1 C          63.4176   84.1414   14.0504 C.ar    1  UNL1        0.0611
      2 C          62.8816   83.2767   15.1527 C.ar    1  UNL1        0.1037
      3 N          62.6316   84.1496   16.3466 N.ar    1  UNL1       -0.2269
      4 C          63.0133   85.5538   15.9823 C.ar    1  UNL1        0.1407
      5 N          62.9812   86.8363   16.7594 N.ar    1  UNL1       -0.3374
      6 C          63.4349   88.1138   16.1174 C.ar    1  UNL1        0.0735
      7 C          63.9207   88.1087   14.6982 C.ar    1  UNL1        0.0186
      8 C          63.9528   86.8261   13.9211 C.ar    1  UNL1        0.0047
      9 C          63.4991   85.5487   14.5631 C.ar    1  UNL1        0.0386
     10 H          62.6623   86.8397   17.6908 H       1  UNL1        0.1674
     11 C          64.3744   89.3862   14.0562 C.ar    1  UNL1        0.0207
     12 C          63.7359   89.8531   12.7818 C.ar    1  UNL1        0.0045
     13 C          64.1896   91.1307   12.1398 C.ar    1  UNL1        0.0343
     14 C          65.2818   91.9412   12.7723 C.ar    1  UNL1        0.1318
     15 N          65.9203   91.4742   14.0468 N.ar    1  UNL1       -0.2292
     16 C          65.4666   90.1968   14.6887 C.ar    1  UNL1        0.1003
     17 N          65.7356   93.2187   12.1304 N.pl3   1  UNL1       -0.2897
     18 C          65.5316   93.4328   10.6598 C.3     1  UNL1        0.1136
     19 C          66.3932   94.2821   12.9590 C.3     1  UNL1        0.1136
     20 C          63.8045   83.6798   12.6766 C.2     1  UNL1        0.2015
     21 O          64.7750   82.5482   12.5111 O.2     1  UNL1       -0.2864
     22 C          61.4655   85.9452   10.4078 C.ar    1  UNL1        0.0920
     23 C          62.0530   85.6900    9.0515 C.ar    1  UNL1        0.0204
     24 C          63.2243   84.7648    8.9035 C.ar    1  UNL1        0.0312
     25 C          63.8081   84.0947   10.1118 C.ar    1  UNL1        0.1454
     26 F          64.9795   83.1694    9.9638 F       1  UNL1       -0.2040
     27 C          63.2206   84.3499   11.4682 C.ar    1  UNL1        0.0951
     28 C          62.0493   85.2751   11.6161 C.ar    1  UNL1        0.1598
     29 F          61.4618   85.5303   12.9725 F       1  UNL1       -0.2026
     30 N          60.2941   86.8705   10.5558 N.pl3   1  UNL1       -0.2166
     31 H          59.4085   86.5099   10.7899 H       1  UNL1        0.1734
     32 S          60.4723   88.3452   10.3471 S.O2    1  UNL1        0.0540
     33 O          61.1578   88.4506   11.6771 O.2     1  UNL1       -0.1545
     34 O          59.7867   88.2398    9.0171 O.2     1  UNL1       -0.1545
     35 C          60.6503   89.8198   10.1384 C.3     1  UNL1        0.1724
     36 C          58.8542   90.3543   11.9379 C.3     1  UNL1        0.0019
     37 C          60.0001   90.7939   11.0756 C.3     1  UNL1        0.0273
@<TRIPOS>BOND
     1    36    37    1
     2    37    35    1
     3    35    32    1
     4    32    33    2
     5    32    34    2
     6    32    30    1
     7    30    22    1
     8    22    23   ar
     9    23    24   ar
    10    24    25   ar
    11    25    26    1
    12    25    27   ar
    13    27    20    1
    14    20    21    2
    15    20     1    1
    16     1     2   ar
    17     2     3   ar
    18     3     4   ar
    19     4     5   ar
    20     5     6   ar
    21     6     7   ar
    22     7    11    1
    23    11    12   ar
    24    12    13   ar
    25    13    14   ar
    26    14    17    1
    27    17    18    1
    28    17    19    1
    29    14    15   ar
    30    15    16   ar
    31     7     8   ar
    32     8     9   ar
    33    27    28   ar
    34    28    29    1
    35    28    22   ar
    36     9     1   ar
    37     9     4    1
    38    16    11   ar
    39    30    31    1
    40     5    10    1
@<TRIPOS>MOLECULE
*****
 37 40 0 0 0
SMALL
GASTEIGER

@<TRIPOS>ATOM
      1 C          62.8932   90.1999   12.5208 C.ar    1  UNL1        0.0611
      2 C          62.6100   91.3508   11.6015 C.ar    1  UNL1        0.1037
      3 N          62.2176   90.7916   10.2661 N.ar    1  UNL1       -0.2269
      4 C          62.2583   89.2951   10.3601 C.ar    1  UNL1        0.1407
      5 N          61.9691   88.2182    9.3568 N.ar    1  UNL1       -0.3374
      6 C          62.0975   86.7756    9.7471 C.ar    1  UNL1        0.0735
      7 C          62.5150   86.4099   11.1406 C.ar    1  UNL1        0.0186
      8 C          62.8042   87.4868   12.1439 C.ar    1  UNL1        0.0047
      9 C          62.6758   88.9294   11.7536 C.ar    1  UNL1        0.0386
     10 H          61.6951   88.4582    8.4422 H       1  UNL1        0.1674
     11 C          62.6433   84.9672   11.5308 C.ar    1  UNL1        0.0207
     12 C          63.0539   83.9478   10.5100 C.ar    1  UNL1        0.0045
     13 C          63.1822   82.5050   10.9002 C.ar    1  UNL1        0.0343
     14 C          62.9000   82.0818   12.3113 C.ar    1  UNL1        0.1318
     15 N          62.4894   83.1013   13.3322 N.ar    1  UNL1       -0.2292
     16 C          62.3611   84.5439   12.9419 C.ar    1  UNL1        0.1003
     17 N          63.0283   80.6392   12.7015 N.pl3   1  UNL1       -0.2897
     18 C          62.7708   79.5627   11.6893 C.3     1  UNL1        0.1136
     19 C          63.4141   80.2731   14.1041 C.3     1  UNL1        0.1136
     20 C          63.3190   90.3015   13.9555 C.2     1  UNL1        0.2015
     21 O          62.5748   89.5433   15.0143 O.2     1  UNL1       -0.2864
     22 C          66.6515   92.4366   13.6619 C.ar    1  UNL1        0.0920
     23 C          66.8292   92.8817   15.0833 C.ar    1  UNL1        0.0204
     24 C          65.8368   92.4668   16.1287 C.ar    1  UNL1        0.0312
     25 C          64.6667   91.6067   15.7529 C.ar    1  UNL1        0.1454
     26 F          63.6743   91.1918   16.7983 F       1  UNL1       -0.2040
     27 C          64.4891   91.1616   14.3315 C.ar    1  UNL1        0.0951
     28 C          65.4815   91.5766   13.2860 C.ar    1  UNL1        0.1598
     29 F          65.3038   91.1314   11.8647 F       1  UNL1       -0.2026
     30 N          67.6439   92.8515   12.6164 N.pl3   1  UNL1       -0.2166
     31 H          68.6089   92.7733   12.7951 H       1  UNL1        0.1734
     32 S          67.1660   93.3857   11.2988 S.O2    1  UNL1        0.0540
     33 O          67.8849   92.2771   10.5887 O.2     1  UNL1       -0.1545
     34 O          66.4472   94.4943   12.0089 O.2     1  UNL1       -0.1545
     35 C          66.6881   93.9199    9.9812 C.3     1  UNL1        0.1724
     36 C          67.3906   96.0577    8.6824 C.3     1  UNL1        0.0019
     37 C          67.6435   94.6306    9.0689 C.3     1  UNL1        0.0273
@<TRIPOS>BOND
     1    36    37    1
     2    37    35    1
     3    35    32    1
     4    32    33    2
     5    32    34    2
     6    32    30    1
     7    30    22    1
     8    22    23   ar
     9    23    24   ar
    10    24    25   ar
    11    25    26    1
    12    25    27   ar
    13    27    20    1
    14    20    21    2
    15    20     1    1
    16     1     2   ar
    17     2     3   ar
    18     3     4   ar
    19     4     5   ar
    20     5     6   ar
    21     6     7   ar
    22     7    11    1
    23    11    12   ar
    24    12    13   ar
    25    13    14   ar
    26    14    17    1
    27    17    18    1
    28    17    19    1
    29    14    15   ar
    30    15    16   ar
    31     7     8   ar
    32     8     9   ar
    33    27    28   ar
    34    28    29    1
    35    28    22   ar
    36     9     1   ar
    37     9     4    1
    38    16    11   ar
    39    30    31    1
    40     5    10    1
@<TRIPOS>MOLECULE
*****
 37 40 0 0 0
SMALL
GASTEIGER

@<TRIPOS>ATOM
      1 C          64.5761   90.9073   14.9662 C.ar    1  UNL1        0.0611
      2 C          64.2851   91.8809   16.0696 C.ar    1  UNL1        0.1037
      3 N          63.6505   91.1250   17.1992 N.ar    1  UNL1       -0.2269
      4 C          63.5493   89.6844   16.7939 C.ar    1  UNL1        0.1407
      5 N          63.0102   88.4777   17.5033 N.ar    1  UNL1       -0.3374
      6 C          63.0431   87.1364   16.8325 C.ar    1  UNL1        0.0735
      7 C          63.6152   87.0019   15.4524 C.ar    1  UNL1        0.0186
      8 C          64.1543   88.2086   14.7431 C.ar    1  UNL1        0.0047
      9 C          64.1214   89.5498   15.4138 C.ar    1  UNL1        0.0386
     10 H          62.6347   88.5660   18.4090 H       1  UNL1        0.1674
     11 C          63.6481   85.6606   14.7817 C.ar    1  UNL1        0.0207
     12 C          63.5119   85.5639   13.2910 C.ar    1  UNL1        0.0045
     13 C          63.5448   84.2225   12.6203 C.ar    1  UNL1        0.0343
     14 C          63.7139   82.9779   13.4403 C.ar    1  UNL1        0.1318
     15 N          63.8501   83.0747   14.9310 N.ar    1  UNL1       -0.2292
     16 C          63.8172   84.4159   15.6016 C.ar    1  UNL1        0.1003
     17 N          63.7468   81.6367   12.7696 N.pl3   1  UNL1       -0.2897
     18 C          64.0527   81.5381   11.3045 C.3     1  UNL1        0.1136
     19 C          63.4738   80.3940   13.5641 C.3     1  UNL1        0.1136
     20 C          65.2105   91.2339   13.6467 C.2     1  UNL1        0.2015
     21 O          66.6790   91.5302   13.5735 O.2     1  UNL1       -0.2864
     22 C          62.1727   90.6817   11.1532 C.ar    1  UNL1        0.0920
     23 C          62.7077   91.3247    9.9080 C.ar    1  UNL1        0.0204
     24 C          64.0768   91.9374    9.9091 C.ar    1  UNL1        0.0312
     25 C          64.9111   91.9072   11.1553 C.ar    1  UNL1        0.1454
     26 F          66.2802   92.5199   11.1563 F       1  UNL1       -0.2040
     27 C          64.3762   91.2642   12.4004 C.ar    1  UNL1        0.0951
     28 C          63.0070   90.6515   12.3994 C.ar    1  UNL1        0.1598
     29 F          62.4722   90.0085   13.6446 F       1  UNL1       -0.2026
     30 N          60.8036   90.0690   11.1521 N.pl3   1  UNL1       -0.2166
     31 H          60.0595   90.5257   11.6071 H       1  UNL1        0.1734
     32 S          60.5681   88.7604   10.4579 S.O2    1  UNL1        0.0540
     33 O          60.0068   89.4898    9.2734 O.2     1  UNL1       -0.1545
     34 O          61.1294   88.0310   11.6423 O.2     1  UNL1       -0.1545
     35 C          60.3327   87.4517    9.7637 C.3     1  UNL1        0.1724
     36 C          62.3394   85.9727    9.0317 C.3     1  UNL1        0.0019
     37 C          61.2525   86.2936   10.0143 C.3     1  UNL1        0.0273
@<TRIPOS>BOND
     1    36    37    1
     2    37    35    1
     3    35    32    1
     4    32    33    2
     5    32    34    2
     6    32    30    1
     7    30    22    1
     8    22    23   ar
     9    23    24   ar
    10    24    25   ar
    11    25    26    1
    12    25    27   ar
    13    27    20    1
    14    20    21    2
    15    20     1    1
    16     1     2   ar
    17     2     3   ar
    18     3     4   ar
    19     4     5   ar
    20     5     6   ar
    21     6     7   ar
    22     7    11    1
    23    11    12   ar
    24    12    13   ar
    25    13    14   ar
    26    14    17    1
    27    17    18    1
    28    17    19    1
    29    14    15   ar
    30    15    16   ar
    31     7     8   ar
    32     8     9   ar
    33    27    28   ar
    34    28    29    1
    35    28    22   ar
    36     9     1   ar
    37     9     4    1
    38    16    11   ar
    39    30    31    1
    40     5    10    1
