@<TRIPOS>MOLECULE
*****
 30 33 0 0 0
SMALL
GASTEIGER

@<TRIPOS>ATOM
      1 O          62.4986   87.2823   11.2737 O.3     1  UNL1       -0.3822
      2 C          61.7126   86.9258   10.0469 C.3     1  UNL1        0.1164
      3 C          61.1443   86.1080    8.9252 C.3     1  UNL1        0.0487
      4 C          60.2221   86.7425    7.9268 C.3     1  UNL1        0.0714
      5 N          59.8681   88.1949    8.0501 N.3     1  UNL1       -0.2969
      6 C          60.4364   89.0128    9.1717 C.3     1  UNL1        0.0789
      7 C          61.3586   88.3783   10.1701 C.3     1  UNL1        0.1043
      8 H          62.9717   86.4983   11.5938 H       1  UNL1        0.2107
      9 H          58.8528   88.2444    8.1346 H       1  UNL1        0.1233
     10 C          62.3396   85.5972   10.3497 C.ar    1  UNL1        0.0046
     11 C          63.1378   84.8871    9.2968 C.ar    1  UNL1        0.0004
     12 C          63.7647   83.5585    9.5997 C.ar    1  UNL1        0.0317
     13 C          63.5934   82.9400   10.9554 C.ar    1  UNL1        0.1674
     14 F          64.2204   81.6114   11.2583 F       1  UNL1       -0.2018
     15 C          62.7953   83.6501   12.0083 C.ar    1  UNL1        0.1671
     16 F          62.6240   83.0316   13.3641 F       1  UNL1       -0.2018
     17 C          62.1683   84.9787   11.7055 C.ar    1  UNL1        0.0299
     18 C          61.9269   89.1961   11.2918 C.ar    1  UNL1        0.1579
     19 C          63.2255   89.9465   11.2660 C.ar    1  UNL1        0.0582
     20 C          63.3975   90.6212   12.5945 C.ar    1  UNL1        0.1243
     21 N          62.2052   90.2879   13.4415 N.ar    1  UNL1       -0.0773
     22 O          61.2964   89.4071   12.6364 O.2     1  UNL1       -0.3576
     23 C          64.5580   91.4787   13.0042 C.ar    1  UNL1        0.0421
     24 C          65.0879   91.4040   14.4055 C.ar    1  UNL1        0.0600
     25 CL         64.4573   90.4717   15.3971 Cl      1  UNL1       -0.0822
     26 C          66.2485   92.2615   14.8152 C.ar    1  UNL1        0.0115
     27 C          66.8791   93.1938   13.8235 C.ar    1  UNL1        0.0017
     28 C          66.3491   93.2684   12.4223 C.ar    1  UNL1        0.0115
     29 C          65.1887   92.4109   12.0126 C.ar    1  UNL1        0.0600
     30 CL         64.6587   92.4856   10.6113 Cl      1  UNL1       -0.0822
@<TRIPOS>BOND
     1     2     1    1
     2     2    10    1
     3    10    11   ar
     4    11    12   ar
     5    12    13   ar
     6    13    14    1
     7    13    15   ar
     8    15    16    1
     9    15    17   ar
    10     2     3    1
    11     3     4    1
    12     4     5    1
    13     5     6    1
    14     6     7    1
    15     7    18    1
    16    18    19   ar
    17    19    20   ar
    18    20    23    1
    19    23    24   ar
    20    24    25    1
    21    24    26   ar
    22    26    27   ar
    23    27    28   ar
    24    28    29   ar
    25    29    30    1
    26    20    21   ar
    27    21    22   ar
    28     7     2    1
    29    22    18   ar
    30    17    10   ar
    31    29    23   ar
    32     1     8    1
    33     5     9    1
@<TRIPOS>MOLECULE
*****
 30 33 0 0 0
SMALL
GASTEIGER

@<TRIPOS>ATOM
      1 O          62.4915   87.2426   11.2744 O.3     1  UNL1       -0.3822
      2 C          61.7113   86.8661   10.0498 C.3     1  UNL1        0.1164
      3 C          61.1538   86.0317    8.9350 C.3     1  UNL1        0.0487
      4 C          60.2261   86.6467    7.9295 C.3     1  UNL1        0.0714
      5 N          59.8559   88.0962    8.0388 N.3     1  UNL1       -0.2969
      6 C          60.4135   88.9307    9.1535 C.3     1  UNL1        0.0789
      7 C          61.3412   88.3157   10.1591 C.3     1  UNL1        0.1043
      8 H          62.9727   86.4669   11.6024 H       1  UNL1        0.2107
      9 H          58.8400   88.1353    8.1214 H       1  UNL1        0.1233
     10 C          62.3524   85.5473   10.3659 C.ar    1  UNL1        0.0046
     11 C          63.1581   84.8353    9.3200 C.ar    1  UNL1        0.0004
     12 C          63.7992   83.5166    9.6361 C.ar    1  UNL1        0.0317
     13 C          63.6346   82.9099   10.9980 C.ar    1  UNL1        0.1674
     14 F          64.2757   81.5911   11.3141 F       1  UNL1       -0.2018
     15 C          62.8289   83.6219   12.0439 C.ar    1  UNL1        0.1671
     16 F          62.6643   83.0153   13.4058 F       1  UNL1       -0.2018
     17 C          62.1878   84.9407   11.7278 C.ar    1  UNL1        0.0299
     18 C          61.8988   89.1501   11.2739 C.ar    1  UNL1        0.1579
     19 C          63.2024   89.8917   11.2532 C.ar    1  UNL1        0.0582
     20 C          63.3598   90.5892   12.5717 C.ar    1  UNL1        0.1243
     21 N          62.1535   90.2788   13.4074 N.ar    1  UNL1       -0.0773
     22 O          61.2505   89.3893   12.6053 O.2     1  UNL1       -0.3576
     23 C          64.5200   91.4468   12.9825 C.ar    1  UNL1        0.0421
     24 C          65.1329   92.4002   11.9998 C.ar    1  UNL1        0.0600
     25 CL         64.5856   92.4960   10.6066 Cl      1  UNL1       -0.0822
     26 C          66.2931   93.2577   12.4106 C.ar    1  UNL1        0.0115
     27 C          66.8403   93.1618   13.8040 C.ar    1  UNL1        0.0017
     28 C          66.2274   92.2085   14.7865 C.ar    1  UNL1        0.0115
     29 C          65.0673   91.3510   14.3758 C.ar    1  UNL1        0.0600
     30 CL         64.4544   90.3975   15.3583 Cl      1  UNL1       -0.0822
@<TRIPOS>BOND
     1     2     1    1
     2     2    10    1
     3    10    11   ar
     4    11    12   ar
     5    12    13   ar
     6    13    14    1
     7    13    15   ar
     8    15    16    1
     9    15    17   ar
    10     2     3    1
    11     3     4    1
    12     4     5    1
    13     5     6    1
    14     6     7    1
    15     7    18    1
    16    18    19   ar
    17    19    20   ar
    18    20    23    1
    19    23    24   ar
    20    24    25    1
    21    24    26   ar
    22    26    27   ar
    23    27    28   ar
    24    28    29   ar
    25    29    30    1
    26    20    21   ar
    27    21    22   ar
    28     7     2    1
    29    22    18   ar
    30    17    10   ar
    31    29    23   ar
    32     1     8    1
    33     5     9    1
@<TRIPOS>MOLECULE
*****
 30 33 0 0 0
SMALL
GASTEIGER

@<TRIPOS>ATOM
      1 O          63.4284   88.4492   12.3067 O.3     1  UNL1       -0.3822
      2 C          62.5286   89.3085   11.4688 C.3     1  UNL1        0.1164
      3 C          61.9669   90.5271   10.7984 C.3     1  UNL1        0.0487
      4 C          60.7445   90.4127    9.9367 C.3     1  UNL1        0.0714
      5 N          60.0838   89.0797    9.7453 N.3     1  UNL1       -0.2969
      6 C          60.6455   87.8611   10.4157 C.3     1  UNL1        0.0789
      7 C          61.8679   87.9755   11.2775 C.3     1  UNL1        0.1043
      8 H          64.1281   88.9968   12.6959 H       1  UNL1        0.2107
      9 H          60.0855   88.8914    8.7429 H       1  UNL1        0.1233
     10 C          63.5019   90.3431   11.9511 C.ar    1  UNL1        0.0046
     11 C          63.9888   91.4090   11.0149 C.ar    1  UNL1        0.0004
     12 C          64.9619   92.4435   11.4972 C.ar    1  UNL1        0.0317
     13 C          65.4482   92.4121   12.9159 C.ar    1  UNL1        0.1674
     14 F          66.4214   93.4466   13.3983 F       1  UNL1       -0.2018
     15 C          64.9613   91.3461   13.8522 C.ar    1  UNL1        0.1671
     16 F          65.4476   91.3147   15.2708 F       1  UNL1       -0.2018
     17 C          63.9881   90.3116   13.3698 C.ar    1  UNL1        0.0299
     18 C          62.4297   86.7569   11.9479 C.ar    1  UNL1        0.1579
     19 C          62.0486   85.3356   11.6568 C.ar    1  UNL1        0.0582
     20 C          62.8546   84.4461   12.5562 C.ar    1  UNL1        0.1243
     21 N          63.7339   85.3176   13.4032 N.ar    1  UNL1       -0.0773
     22 O          63.4713   86.7457   13.0273 O.2     1  UNL1       -0.3576
     23 C          62.7923   82.9481   12.6008 C.ar    1  UNL1        0.0421
     24 C          63.2199   82.1439   11.4089 C.ar    1  UNL1        0.0600
     25 CL         63.7097   82.8377   10.1725 Cl      1  UNL1       -0.0822
     26 C          63.1576   80.6458   11.4535 C.ar    1  UNL1        0.0115
     27 C          62.6677   79.9520   12.6899 C.ar    1  UNL1        0.0017
     28 C          62.2402   80.7562   13.8817 C.ar    1  UNL1        0.0115
     29 C          62.3025   82.2542   13.8371 C.ar    1  UNL1        0.0600
     30 CL         61.8749   83.0585   15.0290 Cl      1  UNL1       -0.0822
@<TRIPOS>BOND
     1     2     1    1
     2     2    10    1
     3    10    11   ar
     4    11    12   ar
     5    12    13   ar
     6    13    14    1
     7    13    15   ar
     8    15    16    1
     9    15    17   ar
    10     2     3    1
    11     3     4    1
    12     4     5    1
    13     5     6    1
    14     6     7    1
    15     7    18    1
    16    18    19   ar
    17    19    20   ar
    18    20    23    1
    19    23    24   ar
    20    24    25    1
    21    24    26   ar
    22    26    27   ar
    23    27    28   ar
    24    28    29   ar
    25    29    30    1
    26    20    21   ar
    27    21    22   ar
    28     7     2    1
    29    22    18   ar
    30    17    10   ar
    31    29    23   ar
    32     1     8    1
    33     5     9    1
@<TRIPOS>MOLECULE
*****
 30 33 0 0 0
SMALL
GASTEIGER

@<TRIPOS>ATOM
      1 O          63.4287   88.4530   12.2980 O.3     1  UNL1       -0.3822
      2 C          62.5258   89.3107   11.4618 C.3     1  UNL1        0.1164
      3 C          61.9616   90.5280   10.7911 C.3     1  UNL1        0.0487
      4 C          60.7358   90.4121    9.9344 C.3     1  UNL1        0.0714
      5 N          60.0742   89.0788    9.7485 N.3     1  UNL1       -0.2969
      6 C          60.6383   87.8615   10.4191 C.3     1  UNL1        0.0789
      7 C          61.8641   87.9774   11.2758 C.3     1  UNL1        0.1043
      8 H          64.1300   89.0013   12.6832 H       1  UNL1        0.2107
      9 H          60.0719   88.8884    8.7464 H       1  UNL1        0.1233
     10 C          63.5010   90.3461   11.9382 C.ar    1  UNL1        0.0046
     11 C          63.9917   91.4044   10.9952 C.ar    1  UNL1        0.0004
     12 C          64.9669   92.4397   11.4716 C.ar    1  UNL1        0.0317
     13 C          65.4515   92.4168   12.8910 C.ar    1  UNL1        0.1674
     14 F          66.4267   93.4522   13.3674 F       1  UNL1       -0.2018
     15 C          64.9608   91.3585   13.8340 C.ar    1  UNL1        0.1671
     16 F          65.4453   91.3356   15.2534 F       1  UNL1       -0.2018
     17 C          63.9856   90.3232   13.3576 C.ar    1  UNL1        0.0299
     18 C          62.4284   86.7601   11.9466 C.ar    1  UNL1        0.1579
     19 C          62.0495   85.3381   11.6564 C.ar    1  UNL1        0.0582
     20 C          62.8576   84.4504   12.5557 C.ar    1  UNL1        0.1243
     21 N          63.7358   85.3237   13.4019 N.ar    1  UNL1       -0.0773
     22 O          63.4706   86.7513   13.0254 O.2     1  UNL1       -0.3576
     23 C          62.7978   82.9522   12.6011 C.ar    1  UNL1        0.0421
     24 C          62.3104   82.2582   13.8384 C.ar    1  UNL1        0.0600
     25 CL         61.8827   83.0623   15.0302 Cl      1  UNL1       -0.0822
     26 C          62.2506   80.7600   13.8837 C.ar    1  UNL1        0.0115
     27 C          62.6784   79.9560   12.6918 C.ar    1  UNL1        0.0017
     28 C          63.1658   80.6500   11.4547 C.ar    1  UNL1        0.0115
     29 C          63.2255   82.1481   11.4093 C.ar    1  UNL1        0.0600
     30 CL         63.7130   82.8422   10.1720 Cl      1  UNL1       -0.0822
@<TRIPOS>BOND
     1     2     1    1
     2     2    10    1
     3    10    11   ar
     4    11    12   ar
     5    12    13   ar
     6    13    14    1
     7    13    15   ar
     8    15    16    1
     9    15    17   ar
    10     2     3    1
    11     3     4    1
    12     4     5    1
    13     5     6    1
    14     6     7    1
    15     7    18    1
    16    18    19   ar
    17    19    20   ar
    18    20    23    1
    19    23    24   ar
    20    24    25    1
    21    24    26   ar
    22    26    27   ar
    23    27    28   ar
    24    28    29   ar
    25    29    30    1
    26    20    21   ar
    27    21    22   ar
    28     7     2    1
    29    22    18   ar
    30    17    10   ar
    31    29    23   ar
    32     1     8    1
    33     5     9    1
@<TRIPOS>MOLECULE
*****
 30 33 0 0 0
SMALL
GASTEIGER

@<TRIPOS>ATOM
      1 O          62.8278   87.4842   10.6649 O.3     1  UNL1       -0.3822
      2 C          61.8609   88.3956    9.9687 C.3     1  UNL1        0.1164
      3 C          61.1622   89.6556    9.5516 C.3     1  UNL1        0.0487
      4 C          60.0273   89.5950    8.5727 C.3     1  UNL1        0.0714
      5 N          59.5911   88.2744    8.0109 N.3     1  UNL1       -0.2969
      6 C          60.2898   87.0143    8.4280 C.3     1  UNL1        0.0789
      7 C          61.4248   87.0749    9.4069 C.3     1  UNL1        0.1043
      8 H          63.4102   88.0074   11.2376 H       1  UNL1        0.2107
      9 H          59.6835   88.3406    6.9972 H       1  UNL1        0.1233
     10 C          62.6330   89.3997   10.7723 C.ar    1  UNL1        0.0046
     11 C          63.0168   90.7145   10.1607 C.ar    1  UNL1        0.0004
     12 C          63.7887   91.7186   10.9643 C.ar    1  UNL1        0.0317
     13 C          64.1769   91.4079   12.3795 C.ar    1  UNL1        0.1674
     14 F          64.9489   92.4121   13.1831 F       1  UNL1       -0.2018
     15 C          63.7931   90.0932   12.9911 C.ar    1  UNL1        0.1671
     16 F          64.1812   89.7825   14.4063 F       1  UNL1       -0.2018
     17 C          63.0211   89.0891   12.1875 C.ar    1  UNL1        0.0299
     18 C          62.1236   85.8149    9.8240 C.ar    1  UNL1        0.1579
     19 C          61.7856   84.9733   11.0188 C.ar    1  UNL1        0.0582
     20 C          62.7362   83.8136   11.0527 C.ar    1  UNL1        0.1243
     21 N          63.6617   83.9383    9.8789 N.ar    1  UNL1       -0.0773
     22 O          63.2831   85.1751    9.1195 O.2     1  UNL1       -0.3576
     23 C          62.7576   82.7209   12.0802 C.ar    1  UNL1        0.0421
     24 C          62.8502   81.2873   11.6485 C.ar    1  UNL1        0.0600
     25 CL         62.9214   80.9464   10.1895 Cl      1  UNL1       -0.0822
     26 C          62.8716   80.1945   12.6759 C.ar    1  UNL1        0.0115
     27 C          62.8004   80.5354   14.1350 C.ar    1  UNL1        0.0017
     28 C          62.7078   81.9690   14.5665 C.ar    1  UNL1        0.0115
     29 C          62.6864   83.0617   13.5392 C.ar    1  UNL1        0.0600
     30 CL         62.5938   84.4953   13.9708 Cl      1  UNL1       -0.0822
@<TRIPOS>BOND
     1     2     1    1
     2     2    10    1
     3    10    11   ar
     4    11    12   ar
     5    12    13   ar
     6    13    14    1
     7    13    15   ar
     8    15    16    1
     9    15    17   ar
    10     2     3    1
    11     3     4    1
    12     4     5    1
    13     5     6    1
    14     6     7    1
    15     7    18    1
    16    18    19   ar
    17    19    20   ar
    18    20    23    1
    19    23    24   ar
    20    24    25    1
    21    24    26   ar
    22    26    27   ar
    23    27    28   ar
    24    28    29   ar
    25    29    30    1
    26    20    21   ar
    27    21    22   ar
    28     7     2    1
    29    22    18   ar
    30    17    10   ar
    31    29    23   ar
    32     1     8    1
    33     5     9    1
@<TRIPOS>MOLECULE
*****
 30 33 0 0 0
SMALL
GASTEIGER

@<TRIPOS>ATOM
      1 O          62.7885   87.4327   10.5716 O.3     1  UNL1       -0.3822
      2 C          61.8085   88.3195    9.8623 C.3     1  UNL1        0.1164
      3 C          61.0913   89.5629    9.4271 C.3     1  UNL1        0.0487
      4 C          59.9578   89.4715    8.4490 C.3     1  UNL1        0.0714
      5 N          59.5414   88.1365    7.9061 N.3     1  UNL1       -0.2969
      6 C          60.2586   86.8931    8.3413 C.3     1  UNL1        0.0789
      7 C          61.3922   86.9845    9.3194 C.3     1  UNL1        0.1043
      8 H          63.3629   87.9726   11.1369 H       1  UNL1        0.2107
      9 H          59.6332   88.1896    6.8916 H       1  UNL1        0.1233
     10 C          62.5652   89.3464   10.6515 C.ar    1  UNL1        0.0046
     11 C          62.9090   90.6671   10.0290 C.ar    1  UNL1        0.0004
     12 C          63.6656   91.6939   10.8183 C.ar    1  UNL1        0.0317
     13 C          64.0786   91.4001   12.2300 C.ar    1  UNL1        0.1674
     14 F          64.8353   92.4270   13.0193 F       1  UNL1       -0.2018
     15 C          63.7349   90.0794   12.8526 C.ar    1  UNL1        0.1671
     16 F          64.1479   89.7856   14.2643 F       1  UNL1       -0.2018
     17 C          62.9782   89.0526   12.0633 C.ar    1  UNL1        0.0299
     18 C          62.1094   85.7412    9.7547 C.ar    1  UNL1        0.1579
     19 C          61.7725   84.9020   10.9515 C.ar    1  UNL1        0.0582
     20 C          62.7444   83.7609   11.0060 C.ar    1  UNL1        0.1243
     21 N          63.6821   83.8946    9.8429 N.ar    1  UNL1       -0.0773
     22 O          63.2896   85.1185    9.0695 O.2     1  UNL1       -0.3576
     23 C          62.7736   82.6763   12.0418 C.ar    1  UNL1        0.0421
     24 C          62.7110   83.0287   13.4986 C.ar    1  UNL1        0.0600
     25 CL         62.6193   84.4655   13.9194 Cl      1  UNL1       -0.0822
     26 C          62.7402   81.9441   14.5344 C.ar    1  UNL1        0.0115
     27 C          62.8320   80.5073   14.1135 C.ar    1  UNL1        0.0017
     28 C          62.8946   80.1550   12.6568 C.ar    1  UNL1        0.0115
     29 C          62.8654   81.2395   11.6210 C.ar    1  UNL1        0.0600
     30 CL         62.9280   80.8873   10.1642 Cl      1  UNL1       -0.0822
@<TRIPOS>BOND
     1     2     1    1
     2     2    10    1
     3    10    11   ar
     4    11    12   ar
     5    12    13   ar
     6    13    14    1
     7    13    15   ar
     8    15    16    1
     9    15    17   ar
    10     2     3    1
    11     3     4    1
    12     4     5    1
    13     5     6    1
    14     6     7    1
    15     7    18    1
    16    18    19   ar
    17    19    20   ar
    18    20    23    1
    19    23    24   ar
    20    24    25    1
    21    24    26   ar
    22    26    27   ar
    23    27    28   ar
    24    28    29   ar
    25    29    30    1
    26    20    21   ar
    27    21    22   ar
    28     7     2    1
    29    22    18   ar
    30    17    10   ar
    31    29    23   ar
    32     1     8    1
    33     5     9    1
@<TRIPOS>MOLECULE
*****
 30 33 0 0 0
SMALL
GASTEIGER

@<TRIPOS>ATOM
      1 O          62.9729   85.1158   12.6596 O.3     1  UNL1       -0.3822
      2 C          63.1755   83.8558   13.4478 C.3     1  UNL1        0.1164
      3 C          63.3832   82.9457   14.6219 C.3     1  UNL1        0.0487
      4 C          63.5059   81.4657   14.4112 C.3     1  UNL1        0.0714
      5 N          63.4210   80.8957   13.0262 N.3     1  UNL1       -0.2969
      6 C          63.2133   81.8058   11.8521 C.3     1  UNL1        0.0789
      7 C          63.0906   83.2859   12.0629 C.3     1  UNL1        0.1043
      8 H          62.9601   85.8757   13.2624 H       1  UNL1        0.2107
      9 H          62.6444   80.2344   13.0271 H       1  UNL1        0.1233
     10 C          63.1901   84.8633   14.5590 C.ar    1  UNL1        0.0046
     11 C          62.4864   84.5664   15.8499 C.ar    1  UNL1        0.0004
     12 C          62.5010   85.5740   16.9610 C.ar    1  UNL1        0.0317
     13 C          63.2194   86.8784   16.7812 C.ar    1  UNL1        0.1674
     14 F          63.2339   87.8860   17.8924 F       1  UNL1       -0.2018
     15 C          63.9231   87.1753   15.4903 C.ar    1  UNL1        0.1671
     16 F          64.6415   88.4798   15.3105 F       1  UNL1       -0.2018
     17 C          63.9085   86.1678   14.3792 C.ar    1  UNL1        0.0299
     18 C          62.8829   84.1960   10.8888 C.ar    1  UNL1        0.1579
     19 C          61.8477   85.2764   10.7829 C.ar    1  UNL1        0.0582
     20 C          61.9991   85.9336    9.4432 C.ar    1  UNL1        0.1243
     21 N          63.1278   85.2596    8.7210 N.ar    1  UNL1       -0.0773
     22 O          63.6740   84.1856    9.6144 O.2     1  UNL1       -0.3576
     23 C          61.1676   87.0662    8.9178 C.ar    1  UNL1        0.0421
     24 C          60.1754   86.8217    7.8197 C.ar    1  UNL1        0.0600
     25 CL         60.0146   85.4447    7.2471 Cl      1  UNL1       -0.0822
     26 C          59.3439   87.9543    7.2943 C.ar    1  UNL1        0.0115
     27 C          59.5048   89.3314    7.8670 C.ar    1  UNL1        0.0017
     28 C          60.4970   89.5758    8.9650 C.ar    1  UNL1        0.0115
     29 C          61.3284   88.4433    9.4904 C.ar    1  UNL1        0.0600
     30 CL         62.3207   88.6877   10.5885 Cl      1  UNL1       -0.0822
@<TRIPOS>BOND
     1     2     1    1
     2     2    10    1
     3    10    11   ar
     4    11    12   ar
     5    12    13   ar
     6    13    14    1
     7    13    15   ar
     8    15    16    1
     9    15    17   ar
    10     2     3    1
    11     3     4    1
    12     4     5    1
    13     5     6    1
    14     6     7    1
    15     7    18    1
    16    18    19   ar
    17    19    20   ar
    18    20    23    1
    19    23    24   ar
    20    24    25    1
    21    24    26   ar
    22    26    27   ar
    23    27    28   ar
    24    28    29   ar
    25    29    30    1
    26    20    21   ar
    27    21    22   ar
    28     7     2    1
    29    22    18   ar
    30    17    10   ar
    31    29    23   ar
    32     1     8    1
    33     5     9    1
@<TRIPOS>MOLECULE
*****
 30 33 0 0 0
SMALL
GASTEIGER

@<TRIPOS>ATOM
      1 O          63.1183   85.4391   12.7120 O.3     1  UNL1       -0.3822
      2 C          63.4005   84.2746   13.6145 C.3     1  UNL1        0.1164
      3 C          63.6875   83.4976   14.8650 C.3     1  UNL1        0.0487
      4 C          63.8628   82.0093   14.7997 C.3     1  UNL1        0.0714
      5 N          63.7511   81.2980   13.4838 N.3     1  UNL1       -0.2969
      6 C          63.4642   82.0750   12.2332 C.3     1  UNL1        0.0789
      7 C          63.2888   83.5633   12.2985 C.3     1  UNL1        0.1043
      8 H          63.0962   86.2556   13.2351 H       1  UNL1        0.2107
      9 H          63.0028   80.6120   13.5825 H       1  UNL1        0.1233
     10 C          63.4141   85.3903   14.6170 C.ar    1  UNL1        0.0046
     11 C          63.9954   86.7230   14.2481 C.ar    1  UNL1        0.0004
     12 C          64.0090   87.8387   15.2505 C.ar    1  UNL1        0.0317
     13 C          63.4413   87.6217   16.6219 C.ar    1  UNL1        0.1674
     14 F          63.4549   88.7375   17.6244 F       1  UNL1       -0.2018
     15 C          62.8600   86.2891   16.9908 C.ar    1  UNL1        0.1671
     16 F          62.2924   86.0721   18.3622 F       1  UNL1       -0.2018
     17 C          62.8464   85.1734   15.9883 C.ar    1  UNL1        0.0299
     18 C          63.0019   84.3403   11.0480 C.ar    1  UNL1        0.1579
     19 C          61.9559   85.4040   10.8913 C.ar    1  UNL1        0.0582
     20 C          62.0182   85.9111    9.4811 C.ar    1  UNL1        0.1243
     21 N          63.1026   85.1609    8.7661 N.ar    1  UNL1       -0.0773
     22 O          63.7106   84.1901    9.7345 O.2     1  UNL1       -0.3576
     23 C          61.1486   86.9807    8.8896 C.ar    1  UNL1        0.0421
     24 C          61.2192   88.3825    9.4188 C.ar    1  UNL1        0.0600
     25 CL         62.1592   88.7146   10.5395 Cl      1  UNL1       -0.0822
     26 C          60.3496   89.4521    8.8273 C.ar    1  UNL1        0.0115
     27 C          59.4095   89.1199    7.7066 C.ar    1  UNL1        0.0017
     28 C          59.3391   87.7182    7.1774 C.ar    1  UNL1        0.0115
     29 C          60.2086   86.6486    7.7689 C.ar    1  UNL1        0.0600
     30 CL         60.1381   85.2468    7.2396 Cl      1  UNL1       -0.0822
@<TRIPOS>BOND
     1     2     1    1
     2     2    10    1
     3    10    11   ar
     4    11    12   ar
     5    12    13   ar
     6    13    14    1
     7    13    15   ar
     8    15    16    1
     9    15    17   ar
    10     2     3    1
    11     3     4    1
    12     4     5    1
    13     5     6    1
    14     6     7    1
    15     7    18    1
    16    18    19   ar
    17    19    20   ar
    18    20    23    1
    19    23    24   ar
    20    24    25    1
    21    24    26   ar
    22    26    27   ar
    23    27    28   ar
    24    28    29   ar
    25    29    30    1
    26    20    21   ar
    27    21    22   ar
    28     7     2    1
    29    22    18   ar
    30    17    10   ar
    31    29    23   ar
    32     1     8    1
    33     5     9    1
@<TRIPOS>MOLECULE
*****
 30 33 0 0 0
SMALL
GASTEIGER

@<TRIPOS>ATOM
      1 O          63.3921   87.4765   12.9984 O.3     1  UNL1       -0.3822
      2 C          63.4889   86.0397   13.4183 C.3     1  UNL1        0.1164
      3 C          63.4481   84.5424   13.3393 C.3     1  UNL1        0.0487
      4 C          63.7697   83.7184   14.5508 C.3     1  UNL1        0.0714
      5 N          64.1321   84.3919   15.8412 N.3     1  UNL1       -0.2969
      6 C          64.1729   85.8892   15.9201 C.3     1  UNL1        0.0789
      7 C          63.8513   86.7131   14.7087 C.3     1  UNL1        0.1043
      8 H          63.1365   87.5238   12.0639 H       1  UNL1        0.2107
      9 H          65.0615   84.0581   16.0966 H       1  UNL1        0.1233
     10 C          63.0928   85.8653   11.9820 C.ar    1  UNL1        0.0046
     11 C          63.4149   84.5877   11.2650 C.ar    1  UNL1        0.0004
     12 C          63.0189   84.4133    9.8288 C.ar    1  UNL1        0.0317
     13 C          62.3008   85.5165    9.1096 C.ar    1  UNL1        0.1674
     14 F          61.9048   85.3421    7.6733 F       1  UNL1       -0.2018
     15 C          61.9787   86.7941    9.8265 C.ar    1  UNL1        0.1671
     16 F          61.2606   87.8973    9.1073 F       1  UNL1       -0.2018
     17 C          62.3747   86.9685   11.2627 C.ar    1  UNL1        0.0299
     18 C          63.8920   88.2105   14.7875 C.ar    1  UNL1        0.1579
     19 C          64.7760   89.1124   13.9781 C.ar    1  UNL1        0.0582
     20 C          64.4862   90.5281   14.3801 C.ar    1  UNL1        0.1243
     21 N          63.4231   90.5013   15.4379 N.ar    1  UNL1       -0.0773
     22 O          63.0558   89.0689   15.6897 O.2     1  UNL1       -0.3576
     23 C          65.1441   91.7553   13.8221 C.ar    1  UNL1        0.0421
     24 C          66.0172   92.6028   14.6993 C.ar    1  UNL1        0.0600
     25 CL         66.2325   92.2230   16.1344 Cl      1  UNL1       -0.0822
     26 C          66.6751   93.8300   14.1414 C.ar    1  UNL1        0.0115
     27 C          66.4597   94.2096   12.7063 C.ar    1  UNL1        0.0017
     28 C          65.5866   93.3622   11.8292 C.ar    1  UNL1        0.0115
     29 C          64.9288   92.1350   12.3871 C.ar    1  UNL1        0.0600
     30 CL         64.0556   91.2875   11.5099 Cl      1  UNL1       -0.0822
@<TRIPOS>BOND
     1     2     1    1
     2     2    10    1
     3    10    11   ar
     4    11    12   ar
     5    12    13   ar
     6    13    14    1
     7    13    15   ar
     8    15    16    1
     9    15    17   ar
    10     2     3    1
    11     3     4    1
    12     4     5    1
    13     5     6    1
    14     6     7    1
    15     7    18    1
    16    18    19   ar
    17    19    20   ar
    18    20    23    1
    19    23    24   ar
    20    24    25    1
    21    24    26   ar
    22    26    27   ar
    23    27    28   ar
    24    28    29   ar
    25    29    30    1
    26    20    21   ar
    27    21    22   ar
    28     7     2    1
    29    22    18   ar
    30    17    10   ar
    31    29    23   ar
    32     1     8    1
    33     5     9    1
