@<TRIPOS>MOLECULE
*****
 36 40 0 0 0
SMALL
GASTEIGER

@<TRIPOS>ATOM
      1 C          61.6949   87.9912   11.1399 C.ar    1  UNL1        0.0447
      2 C          61.4114   88.7363    9.8694 C.ar    1  UNL1        0.0156
      3 C          62.0755   90.0559    9.6097 C.ar    1  UNL1        0.0159
      4 C          63.0232   90.6304   10.6205 C.ar    1  UNL1        0.0507
      5 C          63.3067   89.8853   11.8911 C.ar    1  UNL1        0.0192
      6 C          62.6425   88.5657   12.1508 C.ar    1  UNL1        0.0157
      7 C          64.2793   90.6951   12.6962 C.2     1  UNL1        0.0579
      8 C          64.8365   90.3244   14.0386 C.2     1  UNL1        0.0405
      9 C          64.5969   91.9408   11.9232 C.2     1  UNL1        0.2496
     10 O          65.5275   93.0344   12.3569 O.2     1  UNL1       -0.2698
     11 N          63.8206   91.9008   10.6403 N.am    1  UNL1       -0.2804
     12 H          63.8324   92.5877    9.9352 H       1  UNL1        0.1552
     13 C          64.4245   89.0389   14.6927 C.ar    1  UNL1        0.1404
     14 N          63.5220   88.9051   15.8833 N.ar    1  UNL1       -0.2313
     15 C          63.3825   87.4450   16.1974 C.ar    1  UNL1        0.0779
     16 C          62.5694   86.8567   17.3122 C.3     1  UNL1        0.0537
     17 C          64.1989   86.6764   15.2009 C.ar    1  UNL1        0.0884
     18 N          64.8428   87.6615   14.2710 N.ar    1  UNL1       -0.3364
     19 H          65.4359   87.4425   13.5164 H       1  UNL1        0.1674
     20 C          65.8057   91.2392   14.7270 C.ar    1  UNL1        0.0305
     21 C          67.2250   91.3248   14.2493 C.ar    1  UNL1        0.0023
     22 C          68.1942   92.2395   14.9377 C.ar    1  UNL1        0.0001
     23 C          67.7440   93.0687   16.1038 C.ar    1  UNL1        0.0023
     24 C          66.3248   92.9831   16.5816 C.ar    1  UNL1        0.0296
     25 C          65.3556   92.0683   15.8932 C.ar    1  UNL1        0.1402
     26 F          63.9363   91.9827   16.3710 F       1  UNL1       -0.2042
     27 N          61.0307   86.6715   11.3997 N.pl3   1  UNL1       -0.3339
     28 H          60.0490   86.6013   11.3759 H       1  UNL1        0.1468
     29 N          63.5256   83.0331   12.2874 N.3     1  UNL1       -0.2726
     30 C          62.8233   83.7510   13.4016 C.3     1  UNL1        0.0738
     31 C          61.9917   84.9638   13.1057 C.3     1  UNL1        0.0368
     32 C          61.8623   85.4587   11.6956 C.3     1  UNL1        0.0718
     33 C          62.5646   84.7407   10.5814 C.3     1  UNL1        0.0368
     34 C          63.3962   83.5280   10.8773 C.3     1  UNL1        0.0738
     35 C          63.8875   80.8176   13.5954 C.3     1  UNL1        0.0188
     36 C          64.3572   81.8204   12.5834 C.3     1  UNL1        0.0721
@<TRIPOS>BOND
     1    35    36    1
     2    36    29    1
     3    29    30    1
     4    30    31    1
     5    31    32    1
     6    32    27    1
     7    27     1    1
     8     1     2   ar
     9     2     3   ar
    10     3     4   ar
    11     4     5   ar
    12     5     6   ar
    13     5     7    1
    14     7     8    2
    15     8    13    1
    16    13    14   ar
    17    14    15   ar
    18    15    16    1
    19    15    17   ar
    20    17    18   ar
    21     8    20    1
    22    20    21   ar
    23    21    22   ar
    24    22    23   ar
    25    23    24   ar
    26    24    25   ar
    27    25    26    1
    28     7     9    1
    29     9    10    2
    30     9    11   am
    31    32    33    1
    32    33    34    1
    33    34    29    1
    34     6     1   ar
    35    18    13   ar
    36    25    20   ar
    37    11     4    1
    38    27    28    1
    39    18    19    1
    40    11    12    1
@<TRIPOS>MOLECULE
*****
 36 40 0 0 0
SMALL
GASTEIGER

@<TRIPOS>ATOM
      1 C          63.5899   89.2985   13.0462 C.ar    1  UNL1        0.0447
      2 C          64.3349   89.5831   14.3166 C.ar    1  UNL1        0.0156
      3 C          64.7739   88.4516   15.1980 C.ar    1  UNL1        0.0159
      4 C          64.4679   87.0356   14.8090 C.ar    1  UNL1        0.0507
      5 C          63.7229   86.7511   13.5386 C.ar    1  UNL1        0.0192
      6 C          63.2839   87.8825   12.6572 C.ar    1  UNL1        0.0157
      7 C          63.5658   85.2643   13.4164 C.2     1  UNL1        0.0579
      8 C          62.8809   84.5393   12.2960 C.2     1  UNL1        0.0405
      9 C          64.2136   84.6300   14.6114 C.2     1  UNL1        0.2496
     10 O          64.2904   83.1591   14.8957 O.2     1  UNL1       -0.2698
     11 N          64.7712   85.7246   15.4720 N.am    1  UNL1       -0.2804
     12 H          65.2519   85.6039   16.3227 H       1  UNL1        0.1552
     13 C          62.2759   85.3119   11.1617 C.ar    1  UNL1        0.1404
     14 N          61.0915   86.2282   11.2515 N.ar    1  UNL1       -0.2313
     15 C          60.8327   86.7865    9.8836 C.ar    1  UNL1        0.0779
     16 C          59.7411   87.7473    9.5155 C.3     1  UNL1        0.0537
     17 C          61.8570   86.2154    8.9483 C.ar    1  UNL1        0.0884
     18 N          62.7488   85.3041    9.7382 N.ar    1  UNL1       -0.3364
     19 H          63.5109   84.7909    9.3845 H       1  UNL1        0.1674
     20 C          62.8012   83.0415   12.3100 C.ar    1  UNL1        0.0305
     21 C          61.9629   82.3446   13.3403 C.ar    1  UNL1        0.0023
     22 C          61.8831   80.8468   13.3543 C.ar    1  UNL1        0.0001
     23 C          62.6416   80.0458   12.3379 C.ar    1  UNL1        0.0023
     24 C          63.4799   80.7427   11.3075 C.ar    1  UNL1        0.0296
     25 C          63.5596   82.2405   11.2935 C.ar    1  UNL1        0.1402
     26 F          64.3979   82.9373   10.2631 F       1  UNL1       -0.2042
     27 N          63.1508   90.4301   12.1647 N.pl3   1  UNL1       -0.3339
     28 H          62.2311   90.4528   11.8142 H       1  UNL1        0.1468
     29 N          66.0376   93.7208   11.1221 N.3     1  UNL1       -0.2726
     30 C          65.1537   93.1347   10.0614 C.3     1  UNL1        0.0738
     31 C          64.1914   92.0377   10.4089 C.3     1  UNL1        0.0368
     32 C          64.1131   91.5270   11.8171 C.3     1  UNL1        0.0718
     33 C          64.9970   92.1132   12.8778 C.3     1  UNL1        0.0368
     34 C          65.9593   93.2101   12.5303 C.3     1  UNL1        0.0738
     35 C          67.6633   94.8352    9.4293 C.3     1  UNL1        0.0188
     36 C          66.9999   94.8177   10.7746 C.3     1  UNL1        0.0721
@<TRIPOS>BOND
     1    35    36    1
     2    36    29    1
     3    29    30    1
     4    30    31    1
     5    31    32    1
     6    32    27    1
     7    27     1    1
     8     1     2   ar
     9     2     3   ar
    10     3     4   ar
    11     4     5   ar
    12     5     6   ar
    13     5     7    1
    14     7     8    2
    15     8    13    1
    16    13    14   ar
    17    14    15   ar
    18    15    16    1
    19    15    17   ar
    20    17    18   ar
    21     8    20    1
    22    20    21   ar
    23    21    22   ar
    24    22    23   ar
    25    23    24   ar
    26    24    25   ar
    27    25    26    1
    28     7     9    1
    29     9    10    2
    30     9    11   am
    31    32    33    1
    32    33    34    1
    33    34    29    1
    34     6     1   ar
    35    18    13   ar
    36    25    20   ar
    37    11     4    1
    38    27    28    1
    39    18    19    1
    40    11    12    1
@<TRIPOS>MOLECULE
*****
 36 40 0 0 0
SMALL
GASTEIGER

@<TRIPOS>ATOM
      1 C          62.6837   89.5487   12.0450 C.ar    1  UNL1        0.0447
      2 C          62.3718   89.7602   10.5931 C.ar    1  UNL1        0.0156
      3 C          62.1743   88.5798    9.6889 C.ar    1  UNL1        0.0159
      4 C          62.2888   87.1880   10.2365 C.ar    1  UNL1        0.0507
      5 C          62.6007   86.9766   11.6883 C.ar    1  UNL1        0.0192
      6 C          62.7982   88.1570   12.5926 C.ar    1  UNL1        0.0157
      7 C          62.6514   85.4990   11.9411 C.2     1  UNL1        0.0579
      8 C          62.9333   84.8390   13.2583 C.2     1  UNL1        0.0405
      9 C          62.3709   84.7971   10.6454 C.2     1  UNL1        0.2496
     10 O          62.3229   83.3120   10.4395 O.2     1  UNL1       -0.2698
     11 N          62.1467   85.8410    9.5919 N.am    1  UNL1       -0.2804
     12 H          61.9423   85.6718    8.6438 H       1  UNL1        0.1552
     13 C          63.1972   85.6755   14.4751 C.ar    1  UNL1        0.1404
     14 N          62.5513   85.5064   15.8184 N.ar    1  UNL1       -0.2313
     15 C          63.1083   86.5544   16.7357 C.ar    1  UNL1        0.0779
     16 C          62.7399   86.7511   18.1764 C.3     1  UNL1        0.0537
     17 C          64.0984   87.3713   15.9593 C.ar    1  UNL1        0.0884
     18 N          64.1532   86.8280   14.5623 N.ar    1  UNL1       -0.3364
     19 H          64.7177   87.1682   13.8310 H       1  UNL1        0.1674
     20 C          62.9512   83.3425   13.3588 C.ar    1  UNL1        0.0305
     21 C          61.8544   82.6267   14.0899 C.ar    1  UNL1        0.0023
     22 C          61.8723   81.1301   14.1903 C.ar    1  UNL1        0.0001
     23 C          62.9871   80.3494   13.5597 C.ar    1  UNL1        0.0023
     24 C          64.0839   81.0652   12.8286 C.ar    1  UNL1        0.0296
     25 C          64.0660   82.5618   12.7281 C.ar    1  UNL1        0.1402
     26 F          65.1628   83.2775   11.9970 F       1  UNL1       -0.2042
     27 N          62.8812   90.7291   12.9493 N.pl3   1  UNL1       -0.3339
     28 H          62.1009   91.2108   13.3075 H       1  UNL1        0.1468
     29 N          67.0405   92.0683   14.0252 N.3     1  UNL1       -0.2726
     30 C          66.2734   91.1801   14.9593 C.3     1  UNL1        0.0738
     31 C          64.8870   90.7336   14.6007 C.3     1  UNL1        0.0368
     32 C          64.2676   91.1755   13.3080 C.3     1  UNL1        0.0718
     33 C          65.0347   92.0638   12.3738 C.3     1  UNL1        0.0368
     34 C          66.4211   92.5102   12.7324 C.3     1  UNL1        0.0738
     35 C          68.6892   93.1482   15.7180 C.3     1  UNL1        0.0188
     36 C          68.4268   92.5147   14.3838 C.3     1  UNL1        0.0721
@<TRIPOS>BOND
     1    35    36    1
     2    36    29    1
     3    29    30    1
     4    30    31    1
     5    31    32    1
     6    32    27    1
     7    27     1    1
     8     1     2   ar
     9     2     3   ar
    10     3     4   ar
    11     4     5   ar
    12     5     6   ar
    13     5     7    1
    14     7     8    2
    15     8    13    1
    16    13    14   ar
    17    14    15   ar
    18    15    16    1
    19    15    17   ar
    20    17    18   ar
    21     8    20    1
    22    20    21   ar
    23    21    22   ar
    24    22    23   ar
    25    23    24   ar
    26    24    25   ar
    27    25    26    1
    28     7     9    1
    29     9    10    2
    30     9    11   am
    31    32    33    1
    32    33    34    1
    33    34    29    1
    34     6     1   ar
    35    18    13   ar
    36    25    20   ar
    37    11     4    1
    38    27    28    1
    39    18    19    1
    40    11    12    1
@<TRIPOS>MOLECULE
*****
 36 40 0 0 0
SMALL
GASTEIGER

@<TRIPOS>ATOM
      1 C          61.8987   88.7142   11.0172 C.ar    1  UNL1        0.0447
      2 C          61.6709   89.4928    9.7556 C.ar    1  UNL1        0.0156
      3 C          62.4143   90.7743    9.5206 C.ar    1  UNL1        0.0159
      4 C          63.3854   91.2771   10.5473 C.ar    1  UNL1        0.0507
      5 C          63.6131   90.4985   11.8089 C.ar    1  UNL1        0.0192
      6 C          62.8698   89.2170   12.0439 C.ar    1  UNL1        0.0157
      7 C          64.6249   91.2377   12.6335 C.2     1  UNL1        0.0579
      8 C          65.1474   90.8155   13.9747 C.2     1  UNL1        0.0405
      9 C          65.0225   92.4731   11.8815 C.2     1  UNL1        0.2496
     10 O          66.0124   93.5033   12.3386 O.2     1  UNL1       -0.2698
     11 N          64.2564   92.4975   10.5921 N.am    1  UNL1       -0.2804
     12 H          64.3150   93.1925    9.8972 H       1  UNL1        0.1552
     13 C          64.6544   89.5475   14.6065 C.ar    1  UNL1        0.1404
     14 N          65.0697   88.1558   14.2311 N.ar    1  UNL1       -0.2313
     15 C          64.3314   87.1969   15.1173 C.ar    1  UNL1        0.0779
     16 C          64.4448   85.7015   15.0859 C.3     1  UNL1        0.0537
     17 C          63.4598   87.9959   16.0404 C.ar    1  UNL1        0.0884
     18 N          63.6594   89.4485   15.7246 N.ar    1  UNL1       -0.3364
     19 H          63.2153   90.2044   16.1727 H       1  UNL1        0.1674
     20 C          66.1630   91.6612   14.6841 C.ar    1  UNL1        0.0305
     21 C          65.7939   92.3695   15.9538 C.ar    1  UNL1        0.0023
     22 C          66.8095   93.2153   16.6632 C.ar    1  UNL1        0.0001
     23 C          68.1941   93.3528   16.1030 C.ar    1  UNL1        0.0023
     24 C          68.5632   92.6445   14.8333 C.ar    1  UNL1        0.0296
     25 C          67.5476   91.7987   14.1239 C.ar    1  UNL1        0.1402
     26 F          67.9168   91.0904   12.8542 F       1  UNL1       -0.2042
     27 N          61.1553   87.4327   11.2523 N.pl3   1  UNL1       -0.3339
     28 H          60.2090   87.4550   11.5229 H       1  UNL1        0.1468
     29 N          63.2507   83.4860   10.7203 N.3     1  UNL1       -0.2726
     30 C          63.0598   84.3981    9.5450 C.3     1  UNL1        0.0738
     31 C          62.3613   85.7137    9.7223 C.3     1  UNL1        0.0368
     32 C          61.8538   86.1171   11.0749 C.3     1  UNL1        0.0718
     33 C          62.0447   85.2049   12.2503 C.3     1  UNL1        0.0368
     34 C          62.7432   83.8893   12.0730 C.3     1  UNL1        0.0738
     35 C          63.1743   80.8901   10.6456 C.3     1  UNL1        0.0188
     36 C          63.9491   82.1704   10.5430 C.3     1  UNL1        0.0721
@<TRIPOS>BOND
     1    35    36    1
     2    36    29    1
     3    29    30    1
     4    30    31    1
     5    31    32    1
     6    32    27    1
     7    27     1    1
     8     1     2   ar
     9     2     3   ar
    10     3     4   ar
    11     4     5   ar
    12     5     6   ar
    13     5     7    1
    14     7     8    2
    15     8    13    1
    16    13    14   ar
    17    14    15   ar
    18    15    16    1
    19    15    17   ar
    20    17    18   ar
    21     8    20    1
    22    20    21   ar
    23    21    22   ar
    24    22    23   ar
    25    23    24   ar
    26    24    25   ar
    27    25    26    1
    28     7     9    1
    29     9    10    2
    30     9    11   am
    31    32    33    1
    32    33    34    1
    33    34    29    1
    34     6     1   ar
    35    18    13   ar
    36    25    20   ar
    37    11     4    1
    38    27    28    1
    39    18    19    1
    40    11    12    1
@<TRIPOS>MOLECULE
*****
 36 40 0 0 0
SMALL
GASTEIGER

@<TRIPOS>ATOM
      1 C          63.6116   87.9351   14.6552 C.ar    1  UNL1        0.0447
      2 C          64.2504   86.8218   15.4315 C.ar    1  UNL1        0.0156
      3 C          64.4147   85.4688   14.8051 C.ar    1  UNL1        0.0159
      4 C          63.9401   85.2291   13.4024 C.ar    1  UNL1        0.0507
      5 C          63.3014   86.3424   12.6262 C.ar    1  UNL1        0.0192
      6 C          63.1371   87.6954   13.2526 C.ar    1  UNL1        0.0157
      7 C          62.9336   85.8118   11.2722 C.2     1  UNL1        0.0579
      8 C          62.2707   86.5865   10.1720 C.2     1  UNL1        0.0405
      9 C          63.3451   84.3706   11.2116 C.2     1  UNL1        0.2496
     10 O          63.1660   83.4511   10.0401 O.2     1  UNL1       -0.2698
     11 N          63.9672   84.0105   12.5282 N.am    1  UNL1       -0.2804
     12 H          64.3296   83.1290   12.7751 H       1  UNL1        0.1552
     13 C          61.9159   88.0291   10.3790 C.ar    1  UNL1        0.1404
     14 N          60.6283   88.5476   10.9478 N.ar    1  UNL1       -0.2313
     15 C          60.7030   90.0455   10.9738 C.ar    1  UNL1        0.0779
     16 C          59.6321   90.9733   11.4661 C.3     1  UNL1        0.0537
     17 C          62.0367   90.4528   10.4210 C.ar    1  UNL1        0.0884
     18 N          62.7862   89.2067   10.0534 N.ar    1  UNL1       -0.3364
     19 H          63.6906   89.1683    9.6664 H       1  UNL1        0.1674
     20 C          61.9627   85.9185    8.8648 C.ar    1  UNL1        0.0305
     21 C          63.0631   85.2765    8.0729 C.ar    1  UNL1        0.0023
     22 C          62.7550   84.6085    6.7657 C.ar    1  UNL1        0.0001
     23 C          61.3466   84.5826    6.2502 C.ar    1  UNL1        0.0023
     24 C          60.2462   85.2246    7.0421 C.ar    1  UNL1        0.0296
     25 C          60.5543   85.8925    8.3493 C.ar    1  UNL1        0.1402
     26 F          59.4539   86.5345    9.1411 F       1  UNL1       -0.2042
     27 N          63.4474   89.2881   15.2817 N.pl3   1  UNL1       -0.3339
     28 H          62.8430   89.4048   16.0500 H       1  UNL1        0.1468
     29 N          65.7171   92.8140   13.6488 N.3     1  UNL1       -0.2726
     30 C          65.7334   92.5283   15.1212 C.3     1  UNL1        0.0738
     31 C          64.9768   91.3529   15.6655 C.3     1  UNL1        0.0368
     32 C          64.2039   90.4634   14.7374 C.3     1  UNL1        0.0718
     33 C          64.1876   90.7493   13.2649 C.3     1  UNL1        0.0368
     34 C          64.9442   91.9246   12.7207 C.3     1  UNL1        0.0738
     35 C          66.1629   94.5115   11.7331 C.3     1  UNL1        0.0188
     36 C          66.4736   93.9893   13.1045 C.3     1  UNL1        0.0721
@<TRIPOS>BOND
     1    35    36    1
     2    36    29    1
     3    29    30    1
     4    30    31    1
     5    31    32    1
     6    32    27    1
     7    27     1    1
     8     1     2   ar
     9     2     3   ar
    10     3     4   ar
    11     4     5   ar
    12     5     6   ar
    13     5     7    1
    14     7     8    2
    15     8    13    1
    16    13    14   ar
    17    14    15   ar
    18    15    16    1
    19    15    17   ar
    20    17    18   ar
    21     8    20    1
    22    20    21   ar
    23    21    22   ar
    24    22    23   ar
    25    23    24   ar
    26    24    25   ar
    27    25    26    1
    28     7     9    1
    29     9    10    2
    30     9    11   am
    31    32    33    1
    32    33    34    1
    33    34    29    1
    34     6     1   ar
    35    18    13   ar
    36    25    20   ar
    37    11     4    1
    38    27    28    1
    39    18    19    1
    40    11    12    1
@<TRIPOS>MOLECULE
*****
 36 40 0 0 0
SMALL
GASTEIGER

@<TRIPOS>ATOM
      1 C          63.0044   89.1380   12.0606 C.ar    1  UNL1        0.0447
      2 C          62.6634   89.3754   10.6193 C.ar    1  UNL1        0.0156
      3 C          62.3291   88.2169    9.7271 C.ar    1  UNL1        0.0159
      4 C          62.3358   86.8210   10.2762 C.ar    1  UNL1        0.0507
      5 C          62.6768   86.5836   11.7174 C.ar    1  UNL1        0.0192
      6 C          63.0111   87.7421   12.6097 C.ar    1  UNL1        0.0157
      7 C          62.6023   85.1077   11.9743 C.2     1  UNL1        0.0579
      8 C          62.8681   84.4262   13.2839 C.2     1  UNL1        0.0405
      9 C          62.2152   84.4329   10.6918 C.2     1  UNL1        0.2496
     10 O          62.0260   82.9580   10.4937 O.2     1  UNL1       -0.2698
     11 N          62.0505   85.4918    9.6423 N.am    1  UNL1       -0.2804
     12 H          61.7993   85.3408    8.7024 H       1  UNL1        0.1552
     13 C          63.2481   85.2365   14.4876 C.ar    1  UNL1        0.1404
     14 N          62.4460   85.3729   15.7478 N.ar    1  UNL1       -0.2313
     15 C          63.1992   86.2735   16.6815 C.ar    1  UNL1        0.0779
     16 C          62.7616   86.6820   18.0568 C.3     1  UNL1        0.0537
     17 C          64.4668   86.6937   15.9983 C.ar    1  UNL1        0.0884
     18 N          64.4970   86.0529   14.6425 N.ar    1  UNL1       -0.3364
     19 H          65.2111   86.1509   13.9719 H       1  UNL1        0.1674
     20 C          62.7540   82.9343   13.3898 C.ar    1  UNL1        0.0305
     21 C          61.5842   82.3201   14.1000 C.ar    1  UNL1        0.0023
     22 C          61.4701   80.8282   14.2058 C.ar    1  UNL1        0.0001
     23 C          62.5258   79.9505   13.6015 C.ar    1  UNL1        0.0023
     24 C          63.6955   80.5647   12.8913 C.ar    1  UNL1        0.0296
     25 C          63.8096   82.0566   12.7854 C.ar    1  UNL1        0.1402
     26 F          64.9794   82.6707   12.0752 F       1  UNL1       -0.2042
     27 N          63.3388   90.2965   12.9529 N.pl3   1  UNL1       -0.3339
     28 H          62.9769   90.3337   13.8677 H       1  UNL1        0.1468
     29 N          65.9959   93.6019   11.4482 N.3     1  UNL1       -0.2726
     30 C          66.0797   93.1658   12.8809 C.3     1  UNL1        0.0738
     31 C          65.1939   92.0639   13.3825 C.3     1  UNL1        0.0368
     32 C          64.2245   91.3983   12.4514 C.3     1  UNL1        0.0718
     33 C          64.1407   91.8345   11.0186 C.3     1  UNL1        0.0368
     34 C          65.0264   92.9363   10.5170 C.3     1  UNL1        0.0738
     35 C          67.4824   94.6174    9.5749 C.3     1  UNL1        0.0188
     36 C          66.8816   94.7037   10.9467 C.3     1  UNL1        0.0721
@<TRIPOS>BOND
     1    35    36    1
     2    36    29    1
     3    29    30    1
     4    30    31    1
     5    31    32    1
     6    32    27    1
     7    27     1    1
     8     1     2   ar
     9     2     3   ar
    10     3     4   ar
    11     4     5   ar
    12     5     6   ar
    13     5     7    1
    14     7     8    2
    15     8    13    1
    16    13    14   ar
    17    14    15   ar
    18    15    16    1
    19    15    17   ar
    20    17    18   ar
    21     8    20    1
    22    20    21   ar
    23    21    22   ar
    24    22    23   ar
    25    23    24   ar
    26    24    25   ar
    27    25    26    1
    28     7     9    1
    29     9    10    2
    30     9    11   am
    31    32    33    1
    32    33    34    1
    33    34    29    1
    34     6     1   ar
    35    18    13   ar
    36    25    20   ar
    37    11     4    1
    38    27    28    1
    39    18    19    1
    40    11    12    1
@<TRIPOS>MOLECULE
*****
 36 40 0 0 0
SMALL
GASTEIGER

@<TRIPOS>ATOM
      1 C          63.7348   89.0757   13.1645 C.ar    1  UNL1        0.0447
      2 C          64.4708   89.4262   14.4236 C.ar    1  UNL1        0.0156
      3 C          64.8350   88.3505   15.4036 C.ar    1  UNL1        0.0159
      4 C          64.4632   86.9244   15.1244 C.ar    1  UNL1        0.0507
      5 C          63.7272   86.5739   13.8653 C.ar    1  UNL1        0.0192
      6 C          63.3630   87.6496   12.8853 C.ar    1  UNL1        0.0157
      7 C          63.4956   85.0919   13.8610 C.2     1  UNL1        0.0579
      8 C          62.7942   84.3123   12.7885 C.2     1  UNL1        0.0405
      9 C          64.0884   84.5265   15.1175 C.2     1  UNL1        0.2496
     10 O          64.0840   83.0820   15.5221 O.2     1  UNL1       -0.2698
     11 N          64.6864   85.6590   15.8984 N.am    1  UNL1       -0.2804
     12 H          65.1450   85.5848   16.7664 H       1  UNL1        0.1552
     13 C          62.2502   85.0183   11.5820 C.ar    1  UNL1        0.1404
     14 N          62.7256   84.8449   10.1699 N.ar    1  UNL1       -0.2313
     15 C          61.9044   85.7411    9.2910 C.ar    1  UNL1        0.0779
     16 C          62.0420   85.8847    7.8043 C.3     1  UNL1        0.0537
     17 C          60.9215   86.4684   10.1599 C.ar    1  UNL1        0.0884
     18 N          61.1353   86.0217   11.5757 N.ar    1  UNL1       -0.3364
     19 H          60.6321   86.3325   12.3628 H       1  UNL1        0.1674
     20 C          62.6369   82.8266   12.9224 C.ar    1  UNL1        0.0305
     21 C          61.6471   82.2622   13.8979 C.ar    1  UNL1        0.0023
     22 C          61.4897   80.7765   14.0319 C.ar    1  UNL1        0.0001
     23 C          62.3222   79.8552   13.1903 C.ar    1  UNL1        0.0023
     24 C          63.3120   80.4196   12.2148 C.ar    1  UNL1        0.0296
     25 C          63.4694   81.9053   12.0809 C.ar    1  UNL1        0.1402
     26 F          64.4592   82.4697   11.1053 F       1  UNL1       -0.2042
     27 N          63.3706   90.1514   12.1845 N.pl3   1  UNL1       -0.3339
     28 H          63.8290   91.0221   12.2164 H       1  UNL1        0.1468
     29 N          60.1831   89.3984    9.0987 N.3     1  UNL1       -0.2726
     30 C          59.7987   89.6740   10.5221 C.3     1  UNL1        0.0738
     31 C          60.8612   89.9250   11.5508 C.3     1  UNL1        0.0368
     32 C          62.3081   89.9004   11.1559 C.3     1  UNL1        0.0718
     33 C          62.6924   89.6248    9.7324 C.3     1  UNL1        0.0368
     34 C          61.6299   89.3738    8.7038 C.3     1  UNL1        0.0738
     35 C          59.3978   89.4248    6.6222 C.3     1  UNL1        0.0188
     36 C          59.1205   89.1474    8.0701 C.3     1  UNL1        0.0721
@<TRIPOS>BOND
     1    35    36    1
     2    36    29    1
     3    29    30    1
     4    30    31    1
     5    31    32    1
     6    32    27    1
     7    27     1    1
     8     1     2   ar
     9     2     3   ar
    10     3     4   ar
    11     4     5   ar
    12     5     6   ar
    13     5     7    1
    14     7     8    2
    15     8    13    1
    16    13    14   ar
    17    14    15   ar
    18    15    16    1
    19    15    17   ar
    20    17    18   ar
    21     8    20    1
    22    20    21   ar
    23    21    22   ar
    24    22    23   ar
    25    23    24   ar
    26    24    25   ar
    27    25    26    1
    28     7     9    1
    29     9    10    2
    30     9    11   am
    31    32    33    1
    32    33    34    1
    33    34    29    1
    34     6     1   ar
    35    18    13   ar
    36    25    20   ar
    37    11     4    1
    38    27    28    1
    39    18    19    1
    40    11    12    1
@<TRIPOS>MOLECULE
*****
 36 40 0 0 0
SMALL
GASTEIGER

@<TRIPOS>ATOM
      1 C          62.1468   89.6318   10.8478 C.ar    1  UNL1        0.0447
      2 C          62.0542   90.4900    9.6210 C.ar    1  UNL1        0.0156
      3 C          62.9518   91.6823    9.4704 C.ar    1  UNL1        0.0159
      4 C          63.9420   92.0164   10.5464 C.ar    1  UNL1        0.0507
      5 C          64.0346   91.1582   11.7731 C.ar    1  UNL1        0.0192
      6 C          63.1370   89.9659   11.9238 C.ar    1  UNL1        0.0157
      7 C          65.0998   91.7311   12.6603 C.2     1  UNL1        0.0579
      8 C          65.5247   91.1872   13.9920 C.2     1  UNL1        0.0405
      9 C          65.6656   92.9435   11.9818 C.2     1  UNL1        0.2496
     10 O          66.7555   93.8247   12.5161 O.2     1  UNL1       -0.2698
     11 N          64.9500   93.1198   10.6754 N.am    1  UNL1       -0.2804
     12 H          65.1132   93.8342   10.0180 H       1  UNL1        0.1552
     13 C          64.8643   89.9598   14.5462 C.ar    1  UNL1        0.1404
     14 N          65.1771   88.5426   14.1669 N.ar    1  UNL1       -0.2313
     15 C          64.2811   87.6410   14.9633 C.ar    1  UNL1        0.0779
     16 C          64.2561   86.1426   14.8994 C.3     1  UNL1        0.0537
     17 C          63.4146   88.5009   15.8350 C.ar    1  UNL1        0.0884
     18 N          63.7750   89.9339   15.5772 N.ar    1  UNL1       -0.3364
     19 H          63.3681   90.7196   16.0089 H       1  UNL1        0.1674
     20 C          66.6101   91.8708   14.7697 C.ar    1  UNL1        0.0305
     21 C          66.2903   92.5424   16.0722 C.ar    1  UNL1        0.0023
     22 C          67.3757   93.2260   16.8499 C.ar    1  UNL1        0.0001
     23 C          68.7808   93.2379   16.3250 C.ar    1  UNL1        0.0023
     24 C          69.1005   92.5663   15.0224 C.ar    1  UNL1        0.0296
     25 C          68.0152   91.8827   14.2448 C.ar    1  UNL1        0.1402
     26 F          68.3350   91.2111   12.9423 F       1  UNL1       -0.2042
     27 N          61.2492   88.4395   10.9985 N.pl3   1  UNL1       -0.3339
     28 H          60.7483   88.3030   11.8350 H       1  UNL1        0.1468
     29 N          60.8460   85.4862    7.6272 N.3     1  UNL1       -0.2726
     30 C          59.6865   86.3615    8.0001 C.3     1  UNL1        0.0738
     31 C          59.8208   87.3460    9.1239 C.3     1  UNL1        0.0368
     32 C          61.1148   87.4551    9.8748 C.3     1  UNL1        0.0718
     33 C          62.2744   86.5796    9.5018 C.3     1  UNL1        0.0368
     34 C          62.1400   85.5952    8.3781 C.3     1  UNL1        0.0738
     35 C          61.9046   84.1563    5.6623 C.3     1  UNL1        0.0188
     36 C          60.7116   84.5018    6.5035 C.3     1  UNL1        0.0721
@<TRIPOS>BOND
     1    35    36    1
     2    36    29    1
     3    29    30    1
     4    30    31    1
     5    31    32    1
     6    32    27    1
     7    27     1    1
     8     1     2   ar
     9     2     3   ar
    10     3     4   ar
    11     4     5   ar
    12     5     6   ar
    13     5     7    1
    14     7     8    2
    15     8    13    1
    16    13    14   ar
    17    14    15   ar
    18    15    16    1
    19    15    17   ar
    20    17    18   ar
    21     8    20    1
    22    20    21   ar
    23    21    22   ar
    24    22    23   ar
    25    23    24   ar
    26    24    25   ar
    27    25    26    1
    28     7     9    1
    29     9    10    2
    30     9    11   am
    31    32    33    1
    32    33    34    1
    33    34    29    1
    34     6     1   ar
    35    18    13   ar
    36    25    20   ar
    37    11     4    1
    38    27    28    1
    39    18    19    1
    40    11    12    1
