@<TRIPOS>MOLECULE
*****
 24 27 0 0 0
SMALL
GASTEIGER

@<TRIPOS>ATOM
      1 C          66.3201   92.4156   13.7405 C.ar    1  UNL1        0.1249
      2 N          66.8644   93.4889   12.8452 N.ar    1  UNL1       -0.2426
      3 C          66.2687   93.7053   11.4857 C.ar    1  UNL1        0.0987
      4 C          65.1285   92.8482   11.0214 C.ar    1  UNL1        0.0208
      5 C          64.5842   91.7749   11.9167 C.ar    1  UNL1        0.0062
      6 C          63.4440   90.9178   11.4525 C.ar    1  UNL1        0.0402
      7 C          62.8997   89.8444   12.3477 C.ar    1  UNL1        0.1357
      8 C          63.4954   89.6281   13.7072 C.ar    1  UNL1        0.0402
      9 C          64.6356   90.4851   14.1715 C.ar    1  UNL1        0.0049
     10 C          65.1800   91.5585   13.2762 C.ar    1  UNL1        0.0192
     11 F          67.9391   91.1223   15.3077 F       1  UNL1       -0.1915
     12 C          66.9159   92.1992   15.1000 C.3     1  UNL1        0.3581
     13 F          66.4884   93.0598   16.2517 F       1  UNL1       -0.1915
     14 N          61.7595   88.9873   11.8835 N.pl3   1  UNL1       -0.1958
     15 H          60.8374   89.2091   12.1479 H       1  UNL1        0.2986
     16 C          62.0241   87.7923   11.0164 C.2     1  UNL1        0.3707
     17 N          61.8275   87.7198    9.5311 N.2     1  UNL1        0.0819
     18 N          62.2137   86.3427    9.0790 N.2     1  UNL1       -0.0365
     19 C          62.6490   85.5641   10.2850 C.2     1  UNL1        0.1346
     20 C          63.1369   84.1550   10.4476 C.3     1  UNL1        0.0792
     21 C          63.5077   83.6418   11.8074 C.2     1  UNL1        0.0010
     22 C          63.3906   84.5378   13.0048 C.2     1  UNL1        0.0950
     23 N          62.9026   85.9469   12.8422 N.2     1  UNL1       -0.2354
     24 C          62.5318   86.4600   11.4823 C.2     1  UNL1        0.1834
@<TRIPOS>BOND
     1    11    12    1
     2    12    13    1
     3    12     1    1
     4     1     2   ar
     5     2     3   ar
     6     3     4   ar
     7     4     5   ar
     8     5     6   ar
     9     6     7   ar
    10     7    14    1
    11    14    16    1
    12    16    17    2
    13    17    18    1
    14    18    19    2
    15    19    20    1
    16    20    21    1
    17    21    22    2
    18    22    23    1
    19    23    24    2
    20     7     8   ar
    21     8     9   ar
    22     9    10   ar
    23    10     1   ar
    24    10     5   ar
    25    24    16    1
    26    24    19    1
    27    14    15    1
@<TRIPOS>MOLECULE
*****
 24 27 0 0 0
SMALL
GASTEIGER

@<TRIPOS>ATOM
      1 C          66.5370   92.5294   13.2479 C.ar    1  UNL1        0.1249
      2 N          67.1267   93.4054   12.1826 N.ar    1  UNL1       -0.2426
      3 C          66.4668   93.4998   10.8389 C.ar    1  UNL1        0.0987
      4 C          65.2171   92.7183   10.5604 C.ar    1  UNL1        0.0208
      5 C          64.6274   91.8423   11.6257 C.ar    1  UNL1        0.0062
      6 C          63.3777   91.0607   11.3473 C.ar    1  UNL1        0.0402
      7 C          62.7880   90.1847   12.4126 C.ar    1  UNL1        0.1357
      8 C          63.4480   90.0903   13.7563 C.ar    1  UNL1        0.0402
      9 C          64.6976   90.8718   14.0347 C.ar    1  UNL1        0.0049
     10 C          65.2874   91.7479   12.9694 C.ar    1  UNL1        0.0192
     11 F          67.7308   91.1188   15.0741 F       1  UNL1       -0.1915
     12 C          67.1970   92.4349   14.5916 C.3     1  UNL1        0.3581
     13 F          67.3231   93.6566   15.4527 F       1  UNL1       -0.1915
     14 N          61.5383   89.4031   12.1342 N.pl3   1  UNL1       -0.1958
     15 H          60.6744   89.7129   12.4904 H       1  UNL1        0.2986
     16 C          61.6050   88.1497   11.3131 C.2     1  UNL1        0.3707
     17 N          62.3975   86.9199   11.6441 N.2     1  UNL1        0.0819
     18 N          62.1731   85.9160   10.5524 N.2     1  UNL1       -0.0365
     19 C          61.2419   86.5254    9.5466 C.2     1  UNL1        0.1346
     20 C          60.6683   86.0017    8.2634 C.3     1  UNL1        0.0792
     21 C          59.7437   86.8582    7.4503 C.2     1  UNL1        0.0010
     22 C          59.3925   88.2388    7.9204 C.2     1  UNL1        0.0950
     23 N          59.9661   88.7626    9.2037 N.2     1  UNL1       -0.2354
     24 C          60.8908   87.9059   10.0168 C.2     1  UNL1        0.1834
@<TRIPOS>BOND
     1    11    12    1
     2    12    13    1
     3    12     1    1
     4     1     2   ar
     5     2     3   ar
     6     3     4   ar
     7     4     5   ar
     8     5     6   ar
     9     6     7   ar
    10     7    14    1
    11    14    16    1
    12    16    17    2
    13    17    18    1
    14    18    19    2
    15    19    20    1
    16    20    21    1
    17    21    22    2
    18    22    23    1
    19    23    24    2
    20     7     8   ar
    21     8     9   ar
    22     9    10   ar
    23    10     1   ar
    24    10     5   ar
    25    24    16    1
    26    24    19    1
    27    14    15    1
@<TRIPOS>MOLECULE
*****
 24 27 0 0 0
SMALL
GASTEIGER

@<TRIPOS>ATOM
      1 C          66.3878   92.8635   11.9565 C.ar    1  UNL1        0.1249
      2 N          67.2227   92.9883   13.1964 N.ar    1  UNL1       -0.2426
      3 C          66.8236   92.2605   14.4457 C.ar    1  UNL1        0.0987
      4 C          65.5896   91.4078   14.4552 C.ar    1  UNL1        0.0208
      5 C          64.7547   91.2829   13.2154 C.ar    1  UNL1        0.0062
      6 C          63.5206   90.4302   13.2248 C.ar    1  UNL1        0.0402
      7 C          62.6858   90.3054   11.9850 C.ar    1  UNL1        0.1357
      8 C          63.0849   91.0332   10.7356 C.ar    1  UNL1        0.0402
      9 C          64.3189   91.8859   10.7261 C.ar    1  UNL1        0.0049
     10 C          65.1538   92.0108   11.9660 C.ar    1  UNL1        0.0192
     11 F          67.2363   92.8207    9.5013 F       1  UNL1       -0.1915
     12 C          66.7869   93.5913   10.7071 C.3     1  UNL1        0.3581
     13 F          66.7367   95.0898   10.6636 F       1  UNL1       -0.1915
     14 N          61.4517   89.4526   11.9944 N.pl3   1  UNL1       -0.1958
     15 H          60.6677   89.7272   12.5228 H       1  UNL1        0.2986
     16 C          61.4122   88.1816   11.1989 C.2     1  UNL1        0.3707
     17 N          62.0639   86.8844   11.5766 N.2     1  UNL1        0.0819
     18 N          61.7685   85.8857   10.4971 N.2     1  UNL1       -0.0365
     19 C          60.9343   86.5657    9.4522 C.2     1  UNL1        0.1346
     20 C          60.3468   86.0762    8.1618 C.3     1  UNL1        0.0792
     21 C          59.5390   87.0054    7.3051 C.2     1  UNL1        0.0010
     22 C          59.3188   88.4244    7.7389 C.2     1  UNL1        0.0950
     23 N          59.9063   88.9140    9.0293 N.2     1  UNL1       -0.2354
     24 C          60.7141   87.9846    9.8859 C.2     1  UNL1        0.1834
@<TRIPOS>BOND
     1    11    12    1
     2    12    13    1
     3    12     1    1
     4     1     2   ar
     5     2     3   ar
     6     3     4   ar
     7     4     5   ar
     8     5     6   ar
     9     6     7   ar
    10     7    14    1
    11    14    16    1
    12    16    17    2
    13    17    18    1
    14    18    19    2
    15    19    20    1
    16    20    21    1
    17    21    22    2
    18    22    23    1
    19    23    24    2
    20     7     8   ar
    21     8     9   ar
    22     9    10   ar
    23    10     1   ar
    24    10     5   ar
    25    24    16    1
    26    24    19    1
    27    14    15    1
@<TRIPOS>MOLECULE
*****
 24 27 0 0 0
SMALL
GASTEIGER

@<TRIPOS>ATOM
      1 C          65.6876   92.8697   12.3251 C.ar    1  UNL1        0.1249
      2 N          66.4114   93.0102   13.6313 N.ar    1  UNL1       -0.2426
      3 C          66.1296   92.0533   14.7516 C.ar    1  UNL1        0.0987
      4 C          65.1239   90.9561   14.5657 C.ar    1  UNL1        0.0208
      5 C          64.4000   90.8157   13.2595 C.ar    1  UNL1        0.0062
      6 C          63.3943   89.7184   13.0735 C.ar    1  UNL1        0.0402
      7 C          62.6704   89.5780   11.7673 C.ar    1  UNL1        0.1357
      8 C          62.9522   90.5348   10.6470 C.ar    1  UNL1        0.0402
      9 C          63.9579   91.6320   10.8329 C.ar    1  UNL1        0.0049
     10 C          64.6818   91.7725   12.1392 C.ar    1  UNL1        0.0192
     11 F          66.5188   93.3184    9.9048 F       1  UNL1       -0.1915
     12 C          65.9694   93.8265   11.2047 C.3     1  UNL1        0.3581
     13 F          65.7017   95.2915   11.3844 F       1  UNL1       -0.1915
     14 N          61.6646   88.4807   11.5814 N.pl3   1  UNL1       -0.1958
     15 H          60.7488   88.5888   11.9261 H       1  UNL1        0.2986
     16 C          62.0542   87.2189   10.8702 C.2     1  UNL1        0.3707
     17 N          61.9970   86.9878    9.3892 N.2     1  UNL1        0.0819
     18 N          62.4769   85.5926    9.1188 N.2     1  UNL1       -0.0365
     19 C          62.8306   84.9613   10.4328 C.2     1  UNL1        0.1346
     20 C          63.3568   83.6012   10.7835 C.3     1  UNL1        0.0792
     21 C          63.6219   83.2460   12.2165 C.2     1  UNL1        0.0010
     22 C          63.3606   84.2511   13.2990 C.2     1  UNL1        0.0950
     23 N          62.8344   85.6114   12.9482 N.2     1  UNL1       -0.2354
     24 C          62.5694   85.9664   11.5152 C.2     1  UNL1        0.1834
@<TRIPOS>BOND
     1    11    12    1
     2    12    13    1
     3    12     1    1
     4     1     2   ar
     5     2     3   ar
     6     3     4   ar
     7     4     5   ar
     8     5     6   ar
     9     6     7   ar
    10     7    14    1
    11    14    16    1
    12    16    17    2
    13    17    18    1
    14    18    19    2
    15    19    20    1
    16    20    21    1
    17    21    22    2
    18    22    23    1
    19    23    24    2
    20     7     8   ar
    21     8     9   ar
    22     9    10   ar
    23    10     1   ar
    24    10     5   ar
    25    24    16    1
    26    24    19    1
    27    14    15    1
@<TRIPOS>MOLECULE
*****
 24 27 0 0 0
SMALL
GASTEIGER

@<TRIPOS>ATOM
      1 C          66.5974   92.5237   13.3779 C.ar    1  UNL1        0.1249
      2 N          67.1884   93.2859   12.2291 N.ar    1  UNL1       -0.2426
      3 C          66.4882   93.3058   10.9027 C.ar    1  UNL1        0.0987
      4 C          65.1969   92.5635   10.7251 C.ar    1  UNL1        0.0208
      5 C          64.6059   91.8014   11.8739 C.ar    1  UNL1        0.0062
      6 C          63.3145   91.0591   11.6964 C.ar    1  UNL1        0.0402
      7 C          62.7235   90.2969   12.8451 C.ar    1  UNL1        0.1357
      8 C          63.4237   90.2770   14.1715 C.ar    1  UNL1        0.0402
      9 C          64.7150   91.0192   14.3491 C.ar    1  UNL1        0.0049
     10 C          65.3061   91.7815   13.2003 C.ar    1  UNL1        0.0192
     11 F          67.4976   93.7804   15.4660 F       1  UNL1       -0.1915
     12 C          67.2977   92.5038   14.7042 C.3     1  UNL1        0.3581
     13 F          67.7980   91.2073   15.2688 F       1  UNL1       -0.1915
     14 N          61.4321   89.5546   12.6676 N.pl3   1  UNL1       -0.1958
     15 H          60.8820   89.3291   13.4523 H       1  UNL1        0.2986
     16 C          60.9790   89.1558   11.2945 C.2     1  UNL1        0.3707
     17 N          60.0604   89.9415   10.4062 N.2     1  UNL1        0.0819
     18 N          59.8785   89.1726    9.1312 N.2     1  UNL1       -0.0365
     19 C          60.6847   87.9116    9.2315 C.2     1  UNL1        0.1346
     20 C          60.8873   86.7714    8.2781 C.3     1  UNL1        0.0792
     21 C          61.7700   85.6209    8.6615 C.2     1  UNL1        0.0010
     22 C          62.4502   85.6105    9.9985 C.2     1  UNL1        0.0950
     23 N          62.2475   86.7507   10.9519 N.2     1  UNL1       -0.2354
     24 C          61.3648   87.9012   10.5684 C.2     1  UNL1        0.1834
@<TRIPOS>BOND
     1    11    12    1
     2    12    13    1
     3    12     1    1
     4     1     2   ar
     5     2     3   ar
     6     3     4   ar
     7     4     5   ar
     8     5     6   ar
     9     6     7   ar
    10     7    14    1
    11    14    16    1
    12    16    17    2
    13    17    18    1
    14    18    19    2
    15    19    20    1
    16    20    21    1
    17    21    22    2
    18    22    23    1
    19    23    24    2
    20     7     8   ar
    21     8     9   ar
    22     9    10   ar
    23    10     1   ar
    24    10     5   ar
    25    24    16    1
    26    24    19    1
    27    14    15    1
@<TRIPOS>MOLECULE
*****
 24 27 0 0 0
SMALL
GASTEIGER

@<TRIPOS>ATOM
      1 C          63.6544   84.8508   13.1715 C.ar    1  UNL1        0.1249
      2 N          62.9960   84.1959   11.9936 N.ar    1  UNL1       -0.2426
      3 C          62.3100   85.0341   10.9559 C.ar    1  UNL1        0.0987
      4 C          62.2826   86.5273   11.0961 C.ar    1  UNL1        0.0208
      5 C          62.9410   87.1822   12.2740 C.ar    1  UNL1        0.0062
      6 C          62.9136   88.6754   12.4143 C.ar    1  UNL1        0.0402
      7 C          63.5720   89.3303   13.5922 C.ar    1  UNL1        0.1357
      8 C          64.2580   88.4920   14.6299 C.ar    1  UNL1        0.0402
      9 C          64.2855   86.9989   14.4897 C.ar    1  UNL1        0.0049
     10 C          63.6270   86.3439   13.3117 C.ar    1  UNL1        0.0192
     11 F          63.5495   83.0335   15.0253 F       1  UNL1       -0.1915
     12 C          64.3404   84.0125   14.2092 C.3     1  UNL1        0.3581
     13 F          65.8172   84.1533   14.4309 F       1  UNL1       -0.1915
     14 N          63.5446   90.8235   13.7325 N.pl3   1  UNL1       -0.1958
     15 H          63.0198   91.3676   13.1018 H       1  UNL1        0.2986
     16 C          64.3168   91.4877   14.8336 C.2     1  UNL1        0.3707
     17 N          63.7703   91.9031   16.1673 N.2     1  UNL1        0.0819
     18 N          64.8868   92.5253   16.9524 N.2     1  UNL1       -0.0365
     19 C          66.1234   92.4943   16.1038 C.2     1  UNL1        0.1346
     20 C          67.5247   92.9672   16.3543 C.3     1  UNL1        0.0792
     21 C          68.5737   92.7989   15.2955 C.2     1  UNL1        0.0010
     22 C          68.2214   92.1576   13.9860 C.2     1  UNL1        0.0950
     23 N          66.8200   91.6847   13.7354 N.2     1  UNL1       -0.2354
     24 C          65.7711   91.8531   14.7944 C.2     1  UNL1        0.1834
@<TRIPOS>BOND
     1    11    12    1
     2    12    13    1
     3    12     1    1
     4     1     2   ar
     5     2     3   ar
     6     3     4   ar
     7     4     5   ar
     8     5     6   ar
     9     6     7   ar
    10     7    14    1
    11    14    16    1
    12    16    17    2
    13    17    18    1
    14    18    19    2
    15    19    20    1
    16    20    21    1
    17    21    22    2
    18    22    23    1
    19    23    24    2
    20     7     8   ar
    21     8     9   ar
    22     9    10   ar
    23    10     1   ar
    24    10     5   ar
    25    24    16    1
    26    24    19    1
    27    14    15    1
@<TRIPOS>MOLECULE
*****
 24 27 0 0 0
SMALL
GASTEIGER

@<TRIPOS>ATOM
      1 C          61.8298   86.2086   10.7180 C.ar    1  UNL1        0.1249
      2 N          60.9102   86.0203    9.5480 N.ar    1  UNL1       -0.2426
      3 C          60.4089   87.2127    8.7886 C.ar    1  UNL1        0.0987
      4 C          60.8271   88.5934    9.1991 C.ar    1  UNL1        0.0208
      5 C          61.7467   88.7817   10.3690 C.ar    1  UNL1        0.0062
      6 C          62.1650   90.1625   10.7796 C.ar    1  UNL1        0.0402
      7 C          63.0846   90.3509   11.9496 C.ar    1  UNL1        0.1357
      8 C          63.5859   89.1584   12.7090 C.ar    1  UNL1        0.0402
      9 C          63.1676   87.7777   12.2985 C.ar    1  UNL1        0.0049
     10 C          62.2480   87.5893   11.1285 C.ar    1  UNL1        0.0192
     11 F          63.1072   83.9468   10.7675 F       1  UNL1       -0.1915
     12 C          62.3311   85.0161   11.4775 C.3     1  UNL1        0.3581
     13 F          62.0562   84.8930   12.9469 F       1  UNL1       -0.1915
     14 N          63.5029   91.7317   12.3601 N.pl3   1  UNL1       -0.1958
     15 H          62.8225   92.4251   12.5197 H       1  UNL1        0.2986
     16 C          64.9578   92.0559   12.5276 C.2     1  UNL1        0.3707
     17 N          65.9561   92.2269   11.4212 N.2     1  UNL1        0.0819
     18 N          67.2852   92.5427   12.0407 N.2     1  UNL1       -0.0365
     19 C          67.1083   92.5668   13.5301 C.2     1  UNL1        0.1346
     20 C          68.0711   92.8239   14.6511 C.3     1  UNL1        0.0792
     21 C          67.5958   92.7801   16.0731 C.2     1  UNL1        0.0010
     22 C          66.1573   92.4792   16.3741 C.2     1  UNL1        0.0950
     23 N          65.1944   92.2221   15.2529 N.2     1  UNL1       -0.2354
     24 C          65.6699   92.2659   13.8310 C.2     1  UNL1        0.1834
@<TRIPOS>BOND
     1    11    12    1
     2    12    13    1
     3    12     1    1
     4     1     2   ar
     5     2     3   ar
     6     3     4   ar
     7     4     5   ar
     8     5     6   ar
     9     6     7   ar
    10     7    14    1
    11    14    16    1
    12    16    17    2
    13    17    18    1
    14    18    19    2
    15    19    20    1
    16    20    21    1
    17    21    22    2
    18    22    23    1
    19    23    24    2
    20     7     8   ar
    21     8     9   ar
    22     9    10   ar
    23    10     1   ar
    24    10     5   ar
    25    24    16    1
    26    24    19    1
    27    14    15    1
@<TRIPOS>MOLECULE
*****
 24 27 0 0 0
SMALL
GASTEIGER

@<TRIPOS>ATOM
      1 C          61.5625   86.6026   10.0440 C.ar    1  UNL1        0.1249
      2 N          61.8661   85.3205   10.7609 N.ar    1  UNL1       -0.2426
      3 C          62.6544   85.3432   12.0369 C.ar    1  UNL1        0.0987
      4 C          63.1391   86.6480   12.5960 C.ar    1  UNL1        0.0208
      5 C          62.8355   87.9301   11.8791 C.ar    1  UNL1        0.0062
      6 C          63.3202   89.2349   12.4381 C.ar    1  UNL1        0.0402
      7 C          63.0166   90.5170   11.7212 C.ar    1  UNL1        0.1357
      8 C          62.2283   90.4944   10.4453 C.ar    1  UNL1        0.0402
      9 C          61.7436   89.1896    9.8862 C.ar    1  UNL1        0.0049
     10 C          62.0472   87.9074   10.6031 C.ar    1  UNL1        0.0192
     11 F          59.4175   87.2173    8.7132 F       1  UNL1       -0.1915
     12 C          60.7742   86.5800    8.7681 C.3     1  UNL1        0.3581
     13 F          61.3427   85.9200    7.5469 F       1  UNL1       -0.1915
     14 N          63.5013   91.8219   12.2803 N.pl3   1  UNL1       -0.1958
     15 H          62.8544   92.5191   12.5347 H       1  UNL1        0.2986
     16 C          64.9715   92.0645   12.4518 C.2     1  UNL1        0.3707
     17 N          65.9827   92.1674   11.3487 N.2     1  UNL1        0.0819
     18 N          67.3249   92.4133   11.9716 N.2     1  UNL1       -0.0365
     19 C          67.1432   92.4624   13.4598 C.2     1  UNL1        0.1346
     20 C          68.1142   92.6755   14.5830 C.3     1  UNL1        0.0792
     21 C          67.6309   92.6731   16.0030 C.2     1  UNL1        0.0010
     22 C          66.1764   92.4575   16.2998 C.2     1  UNL1        0.0950
     23 N          65.2053   92.2444   15.1765 N.2     1  UNL1       -0.2354
     24 C          65.6887   92.2468   13.7565 C.2     1  UNL1        0.1834
@<TRIPOS>BOND
     1    11    12    1
     2    12    13    1
     3    12     1    1
     4     1     2   ar
     5     2     3   ar
     6     3     4   ar
     7     4     5   ar
     8     5     6   ar
     9     6     7   ar
    10     7    14    1
    11    14    16    1
    12    16    17    2
    13    17    18    1
    14    18    19    2
    15    19    20    1
    16    20    21    1
    17    21    22    2
    18    22    23    1
    19    23    24    2
    20     7     8   ar
    21     8     9   ar
    22     9    10   ar
    23    10     1   ar
    24    10     5   ar
    25    24    16    1
    26    24    19    1
    27    14    15    1
@<TRIPOS>MOLECULE
*****
 24 27 0 0 0
SMALL
GASTEIGER

@<TRIPOS>ATOM
      1 C          66.6547   92.8041   12.1925 C.ar    1  UNL1        0.1249
      2 N          67.4672   92.8973   13.4499 N.ar    1  UNL1       -0.2426
      3 C          66.9939   92.2181   14.7007 C.ar    1  UNL1        0.0987
      4 C          65.7080   91.4458   14.6942 C.ar    1  UNL1        0.0208
      5 C          64.8955   91.3527   13.4368 C.ar    1  UNL1        0.0062
      6 C          63.6095   90.5804   13.4303 C.ar    1  UNL1        0.0402
      7 C          62.7970   90.4872   12.1729 C.ar    1  UNL1        0.1357
      8 C          63.2703   91.1664   10.9220 C.ar    1  UNL1        0.0402
      9 C          64.5562   91.9387   10.9285 C.ar    1  UNL1        0.0049
     10 C          65.3688   92.0319   12.1860 C.ar    1  UNL1        0.0192
     11 F          67.7929   92.6845    9.8601 F       1  UNL1       -0.1915
     12 C          67.1280   93.4833   10.9416 C.3     1  UNL1        0.3581
     13 F          66.9364   94.9613   10.7722 F       1  UNL1       -0.1915
     14 N          61.5111   89.7149   12.1663 N.pl3   1  UNL1       -0.1958
     15 H          61.0194   89.5703   13.0069 H       1  UNL1        0.2986
     16 C          60.9742   89.1631   10.8790 C.2     1  UNL1        0.3707
     17 N          59.9625   89.8239    9.9902 N.2     1  UNL1        0.0819
     18 N          59.7178   88.9227    8.8164 N.2     1  UNL1       -0.0365
     19 C          60.5783   87.7049    8.9796 C.2     1  UNL1        0.1346
     20 C          60.7552   86.4799    8.1322 C.3     1  UNL1        0.0792
     21 C          61.7084   85.4035    8.5595 C.2     1  UNL1        0.0010
     22 C          62.4849   85.5520    9.8343 C.2     1  UNL1        0.0950
     23 N          62.3081   86.7771   10.6817 N.2     1  UNL1       -0.2354
     24 C          61.3548   87.8535   10.2544 C.2     1  UNL1        0.1834
@<TRIPOS>BOND
     1    11    12    1
     2    12    13    1
     3    12     1    1
     4     1     2   ar
     5     2     3   ar
     6     3     4   ar
     7     4     5   ar
     8     5     6   ar
     9     6     7   ar
    10     7    14    1
    11    14    16    1
    12    16    17    2
    13    17    18    1
    14    18    19    2
    15    19    20    1
    16    20    21    1
    17    21    22    2
    18    22    23    1
    19    23    24    2
    20     7     8   ar
    21     8     9   ar
    22     9    10   ar
    23    10     1   ar
    24    10     5   ar
    25    24    16    1
    26    24    19    1
    27    14    15    1
