@<TRIPOS>MOLECULE
*****
 25 27 0 0 0
SMALL
GASTEIGER

@<TRIPOS>ATOM
      1 C          63.5045   90.3442   11.9896 C.ar    1  UNL1        0.0536
      2 C          62.6249   90.4548   10.7796 C.ar    1  UNL1        0.0076
      3 C          61.7916   89.2845   10.3485 C.ar    1  UNL1        0.0376
      4 C          61.8379   88.0033   11.1275 C.ar    1  UNL1        0.1453
      5 C          62.7175   87.8927   12.3374 C.ar    1  UNL1        0.0376
      6 C          63.5508   89.0631   12.7685 C.ar    1  UNL1        0.0076
      7 O          64.4500   91.8598   13.8760 O.2     1  UNL1       -0.2701
      8 C          64.3377   91.5145   12.4206 C.2     1  UNL1        0.2461
      9 N          65.0588   92.3397   11.3963 N.am    1  UNL1       -0.2969
     10 H          64.9851   92.1131   10.4410 H       1  UNL1        0.1501
     11 C          65.8920   93.5101   11.8273 C.3     1  UNL1        0.1167
     12 C          66.4683   94.4393   10.8004 C.ar    1  UNL1        0.0005
     13 C          67.1574   93.8841    9.5893 C.ar    1  UNL1        0.0181
     14 C          67.7337   94.8133    8.5624 C.ar    1  UNL1        0.0986
     15 N          67.6209   96.2976    8.7467 N.ar    1  UNL1       -0.2423
     16 C          66.9318   96.8528    9.9578 C.ar    1  UNL1        0.0986
     17 C          66.3555   95.9236   10.9847 C.ar    1  UNL1        0.0181
     18 O          61.0046   86.8330   10.6964 O.3     1  UNL1       -0.4535
     19 C          61.2611   86.1769    9.3721 C.ar    1  UNL1        0.1454
     20 C          60.1770   86.1282    8.3367 C.ar    1  UNL1        0.0384
     21 C          60.4335   85.4721    7.0124 C.ar    1  UNL1        0.0145
     22 C          61.7742   84.8646    6.7235 C.ar    1  UNL1        0.0579
     23 CL         62.0307   84.2085    5.3993 Cl      1  UNL1       -0.0822
     24 C          62.8583   84.9133    7.7590 C.ar    1  UNL1        0.0145
     25 C          62.6018   85.5694    9.0832 C.ar    1  UNL1        0.0384
@<TRIPOS>BOND
     1     7     8    2
     2     8     9   am
     3     9    11    1
     4    11    12    1
     5    12    13   ar
     6    13    14   ar
     7    14    15   ar
     8    15    16   ar
     9    16    17   ar
    10     8     1    1
    11     1     2   ar
    12     2     3   ar
    13     3     4   ar
    14     4    18    1
    15    18    19    1
    16    19    20   ar
    17    20    21   ar
    18    21    22   ar
    19    22    23    1
    20    22    24   ar
    21    24    25   ar
    22     4     5   ar
    23     5     6   ar
    24    17    12   ar
    25     6     1   ar
    26    25    19   ar
    27     9    10    1
@<TRIPOS>MOLECULE
*****
 25 27 0 0 0
SMALL
GASTEIGER

@<TRIPOS>ATOM
      1 C          63.1507   89.2116   12.1424 C.ar    1  UNL1        0.0536
      2 C          63.1791   90.2908   11.1011 C.ar    1  UNL1        0.0076
      3 C          63.9504   91.5530   11.3500 C.ar    1  UNL1        0.0376
      4 C          64.6933   91.7360   12.6402 C.ar    1  UNL1        0.1453
      5 C          64.6648   90.6568   13.6816 C.ar    1  UNL1        0.0376
      6 C          63.8935   89.3945   13.4327 C.ar    1  UNL1        0.0076
      7 O          60.9622   88.0200   11.4072 O.2     1  UNL1       -0.2701
      8 C          62.3794   87.9494   11.8936 C.2     1  UNL1        0.2461
      9 N          63.0253   86.6166   12.1311 N.am    1  UNL1       -0.2969
     10 H          63.9555   86.5702   12.4503 H       1  UNL1        0.1501
     11 C          62.2541   85.3544   11.8822 C.3     1  UNL1        0.1167
     12 C          62.5508   84.1232   12.6861 C.ar    1  UNL1        0.0005
     13 C          62.7609   84.2274   14.1676 C.ar    1  UNL1        0.0181
     14 C          63.0577   82.9962   14.9715 C.ar    1  UNL1        0.0986
     15 N          63.1444   81.6609   14.2937 N.ar    1  UNL1       -0.2423
     16 C          62.9343   81.5567   12.8122 C.ar    1  UNL1        0.0986
     17 C          62.6375   82.7878   12.0084 C.ar    1  UNL1        0.0181
     18 O          65.4645   92.9982   12.8891 O.3     1  UNL1       -0.4535
     19 C          66.0562   93.7551   11.7371 C.ar    1  UNL1        0.1454
     20 C          65.9580   95.2512   11.6931 C.ar    1  UNL1        0.0384
     21 C          66.5497   96.0081   10.5411 C.ar    1  UNL1        0.0145
     22 C          67.2397   95.2689    9.4332 C.ar    1  UNL1        0.0579
     23 CL         67.8314   96.0257    8.2813 Cl      1  UNL1       -0.0822
     24 C          67.3379   93.7728    9.4773 C.ar    1  UNL1        0.0145
     25 C          66.7462   93.0159   10.6293 C.ar    1  UNL1        0.0384
@<TRIPOS>BOND
     1     7     8    2
     2     8     9   am
     3     9    11    1
     4    11    12    1
     5    12    13   ar
     6    13    14   ar
     7    14    15   ar
     8    15    16   ar
     9    16    17   ar
    10     8     1    1
    11     1     2   ar
    12     2     3   ar
    13     3     4   ar
    14     4    18    1
    15    18    19    1
    16    19    20   ar
    17    20    21   ar
    18    21    22   ar
    19    22    23    1
    20    22    24   ar
    21    24    25   ar
    22     4     5   ar
    23     5     6   ar
    24    17    12   ar
    25     6     1   ar
    26    25    19   ar
    27     9    10    1
@<TRIPOS>MOLECULE
*****
 25 27 0 0 0
SMALL
GASTEIGER

@<TRIPOS>ATOM
      1 C          63.1689   89.2391   12.1190 C.ar    1  UNL1        0.0536
      2 C          63.9117   89.4221   13.4092 C.ar    1  UNL1        0.0076
      3 C          64.6832   90.6842   13.6579 C.ar    1  UNL1        0.0376
      4 C          64.7119   91.7633   12.6164 C.ar    1  UNL1        0.1453
      5 C          63.9691   91.5803   11.3261 C.ar    1  UNL1        0.0376
      6 C          63.1976   90.3181   11.0774 C.ar    1  UNL1        0.0076
      7 O          60.9961   88.0468   11.3395 O.2     1  UNL1       -0.2701
      8 C          62.3974   87.9770   11.8702 C.2     1  UNL1        0.2461
      9 N          63.0271   86.6451   12.1523 N.am    1  UNL1       -0.2969
     10 H          63.9467   86.5993   12.5006 H       1  UNL1        0.1501
     11 C          62.2556   85.3830   11.9035 C.3     1  UNL1        0.1167
     12 C          62.5836   84.1390   12.6750 C.ar    1  UNL1        0.0005
     13 C          62.6817   82.8209   11.9660 C.ar    1  UNL1        0.0181
     14 C          63.0097   81.5770   12.7375 C.ar    1  UNL1        0.0986
     15 N          63.2396   81.6513   14.2179 N.ar    1  UNL1       -0.2423
     16 C          63.1415   82.9695   14.9268 C.ar    1  UNL1        0.0986
     17 C          62.8135   84.2134   14.1554 C.ar    1  UNL1        0.0181
     18 O          65.4834   93.0254   12.8651 O.3     1  UNL1       -0.4535
     19 C          66.0663   93.7877   11.7122 C.ar    1  UNL1        0.1454
     20 C          66.7345   93.0527   10.5882 C.ar    1  UNL1        0.0384
     21 C          67.3174   93.8149    9.4353 C.ar    1  UNL1        0.0145
     22 C          67.2322   95.3122    9.4064 C.ar    1  UNL1        0.0579
     23 CL         67.8151   96.0744    8.2535 Cl      1  UNL1       -0.0822
     24 C          66.5640   96.0472   10.5304 C.ar    1  UNL1        0.0145
     25 C          65.9811   95.2849   11.6833 C.ar    1  UNL1        0.0384
@<TRIPOS>BOND
     1     7     8    2
     2     8     9   am
     3     9    11    1
     4    11    12    1
     5    12    13   ar
     6    13    14   ar
     7    14    15   ar
     8    15    16   ar
     9    16    17   ar
    10     8     1    1
    11     1     2   ar
    12     2     3   ar
    13     3     4   ar
    14     4    18    1
    15    18    19    1
    16    19    20   ar
    17    20    21   ar
    18    21    22   ar
    19    22    23    1
    20    22    24   ar
    21    24    25   ar
    22     4     5   ar
    23     5     6   ar
    24    17    12   ar
    25     6     1   ar
    26    25    19   ar
    27     9    10    1
@<TRIPOS>MOLECULE
*****
 25 27 0 0 0
SMALL
GASTEIGER

@<TRIPOS>ATOM
      1 C          63.4487   87.6390   15.8908 C.ar    1  UNL1        0.0536
      2 C          63.0748   88.7953   16.7702 C.ar    1  UNL1        0.0076
      3 C          63.4856   90.1878   16.3932 C.ar    1  UNL1        0.0376
      4 C          64.2702   90.4241   15.1367 C.ar    1  UNL1        0.1453
      5 C          64.6441   89.2678   14.2573 C.ar    1  UNL1        0.0376
      6 C          64.2332   87.8753   14.6344 C.ar    1  UNL1        0.0076
      7 O          62.5472   85.9591   17.6558 O.2     1  UNL1       -0.2701
      8 C          63.0379   86.2465   16.2677 C.2     1  UNL1        0.2461
      9 N          63.1178   85.1413   15.2567 N.am    1  UNL1       -0.2969
     10 H          63.4399   85.3299   14.3457 H       1  UNL1        0.1501
     11 C          62.7071   83.7488   15.6337 C.3     1  UNL1        0.1167
     12 C          62.7405   82.6537   14.6091 C.ar    1  UNL1        0.0005
     13 C          63.8933   82.5545   13.6546 C.ar    1  UNL1        0.0181
     14 C          63.9266   81.4594   12.6301 C.ar    1  UNL1        0.0986
     15 N          62.8072   80.4635   12.5602 N.ar    1  UNL1       -0.2423
     16 C          61.6544   80.5626   13.5147 C.ar    1  UNL1        0.0986
     17 C          61.6210   81.6577   14.5392 C.ar    1  UNL1        0.0181
     18 O          64.6810   91.8166   14.7597 O.3     1  UNL1       -0.4535
     19 C          65.4633   92.0532   13.5020 C.ar    1  UNL1        0.1454
     20 C          64.7462   92.3092   12.2096 C.ar    1  UNL1        0.0384
     21 C          65.5285   92.5458   10.9519 C.ar    1  UNL1        0.0145
     22 C          67.0280   92.5264   10.9864 C.ar    1  UNL1        0.0579
     23 CL         67.8103   92.7631    9.7287 Cl      1  UNL1       -0.0822
     24 C          67.7451   92.2704   12.2788 C.ar    1  UNL1        0.0145
     25 C          66.9628   92.0338   13.5365 C.ar    1  UNL1        0.0384
@<TRIPOS>BOND
     1     7     8    2
     2     8     9   am
     3     9    11    1
     4    11    12    1
     5    12    13   ar
     6    13    14   ar
     7    14    15   ar
     8    15    16   ar
     9    16    17   ar
    10     8     1    1
    11     1     2   ar
    12     2     3   ar
    13     3     4   ar
    14     4    18    1
    15    18    19    1
    16    19    20   ar
    17    20    21   ar
    18    21    22   ar
    19    22    23    1
    20    22    24   ar
    21    24    25   ar
    22     4     5   ar
    23     5     6   ar
    24    17    12   ar
    25     6     1   ar
    26    25    19   ar
    27     9    10    1
@<TRIPOS>MOLECULE
*****
 25 27 0 0 0
SMALL
GASTEIGER

@<TRIPOS>ATOM
      1 C          62.8565   88.2351   11.9589 C.ar    1  UNL1        0.0536
      2 C          63.6279   88.3988   13.2349 C.ar    1  UNL1        0.0076
      3 C          64.2058   89.7351   13.5957 C.ar    1  UNL1        0.0376
      4 C          64.0124   90.9078   12.6806 C.ar    1  UNL1        0.1453
      5 C          63.2410   90.7441   11.4046 C.ar    1  UNL1        0.0376
      6 C          62.6630   89.4077   11.0438 C.ar    1  UNL1        0.0076
      7 O          60.8320   86.7853   11.2179 O.2     1  UNL1       -0.2701
      8 C          62.2785   86.8988   11.5981 C.2     1  UNL1        0.2461
      9 N          63.1471   85.6760   11.6175 N.am    1  UNL1       -0.2969
     10 H          64.0966   85.7505   11.8670 H       1  UNL1        0.1501
     11 C          62.5692   84.3397   11.2566 C.3     1  UNL1        0.1167
     12 C          62.6212   83.2094   12.2414 C.ar    1  UNL1        0.0005
     13 C          62.5321   83.4912   13.7120 C.ar    1  UNL1        0.0181
     14 C          62.5842   82.3609   14.6967 C.ar    1  UNL1        0.0986
     15 N          62.7253   80.9488   14.2108 N.ar    1  UNL1       -0.2423
     16 C          62.8144   80.6670   12.7402 C.ar    1  UNL1        0.0986
     17 C          62.7623   81.7973   11.7555 C.ar    1  UNL1        0.0181
     18 O          64.5903   92.2441   13.0414 O.3     1  UNL1       -0.4535
     19 C          65.8274   92.3229   13.8860 C.ar    1  UNL1        0.1454
     20 C          67.1735   92.0845   13.2687 C.ar    1  UNL1        0.0384
     21 C          68.4106   92.1632   14.1133 C.ar    1  UNL1        0.0145
     22 C          68.3016   92.4804   15.5753 C.ar    1  UNL1        0.0579
     23 CL         69.5387   92.5591   16.4199 Cl      1  UNL1       -0.0822
     24 C          66.9556   92.7187   16.1927 C.ar    1  UNL1        0.0145
     25 C          65.7185   92.6400   15.3480 C.ar    1  UNL1        0.0384
@<TRIPOS>BOND
     1     7     8    2
     2     8     9   am
     3     9    11    1
     4    11    12    1
     5    12    13   ar
     6    13    14   ar
     7    14    15   ar
     8    15    16   ar
     9    16    17   ar
    10     8     1    1
    11     1     2   ar
    12     2     3   ar
    13     3     4   ar
    14     4    18    1
    15    18    19    1
    16    19    20   ar
    17    20    21   ar
    18    21    22   ar
    19    22    23    1
    20    22    24   ar
    21    24    25   ar
    22     4     5   ar
    23     5     6   ar
    24    17    12   ar
    25     6     1   ar
    26    25    19   ar
    27     9    10    1
@<TRIPOS>MOLECULE
*****
 25 27 0 0 0
SMALL
GASTEIGER

@<TRIPOS>ATOM
      1 C          63.2786   90.3330   12.0069 C.ar    1  UNL1        0.0536
      2 C          63.4368   88.9382   12.5357 C.ar    1  UNL1        0.0076
      3 C          62.5770   87.8314   12.0011 C.ar    1  UNL1        0.0376
      4 C          61.5590   88.1194   10.9377 C.ar    1  UNL1        0.1453
      5 C          61.4008   89.5141   10.4089 C.ar    1  UNL1        0.0376
      6 C          62.2606   90.6209   10.9436 C.ar    1  UNL1        0.0076
      7 O          64.1487   91.7381   14.0115 O.2     1  UNL1       -0.2701
      8 C          64.1383   91.4397   12.5415 C.2     1  UNL1        0.2461
      9 N          64.9878   92.2482   11.6061 N.am    1  UNL1       -0.2969
     10 H          64.9810   92.0523   10.6413 H       1  UNL1        0.1501
     11 C          65.8476   93.3549   12.1407 C.3     1  UNL1        0.1167
     12 C          66.8288   93.0778   13.2409 C.ar    1  UNL1        0.0005
     13 C          67.8513   91.9925   13.0781 C.ar    1  UNL1        0.0181
     14 C          68.8325   91.7154   14.1782 C.ar    1  UNL1        0.0986
     15 N          68.7912   92.5236   15.4412 N.ar    1  UNL1       -0.2423
     16 C          67.7686   93.6088   15.6040 C.ar    1  UNL1        0.0986
     17 C          66.7875   93.8859   14.5039 C.ar    1  UNL1        0.0181
     18 O          60.6993   87.0126   10.4031 O.3     1  UNL1       -0.4535
     19 C          61.1004   86.2888    9.1520 C.ar    1  UNL1        0.1454
     20 C          60.0977   86.0694    8.0583 C.ar    1  UNL1        0.0384
     21 C          60.4988   85.3456    6.8072 C.ar    1  UNL1        0.0145
     22 C          61.9026   84.8412    6.6499 C.ar    1  UNL1        0.0579
     23 CL         62.3038   84.1174    5.3988 Cl      1  UNL1       -0.0822
     24 C          62.9054   85.0606    7.7436 C.ar    1  UNL1        0.0145
     25 C          62.5042   85.7844    8.9947 C.ar    1  UNL1        0.0384
@<TRIPOS>BOND
     1     7     8    2
     2     8     9   am
     3     9    11    1
     4    11    12    1
     5    12    13   ar
     6    13    14   ar
     7    14    15   ar
     8    15    16   ar
     9    16    17   ar
    10     8     1    1
    11     1     2   ar
    12     2     3   ar
    13     3     4   ar
    14     4    18    1
    15    18    19    1
    16    19    20   ar
    17    20    21   ar
    18    21    22   ar
    19    22    23    1
    20    22    24   ar
    21    24    25   ar
    22     4     5   ar
    23     5     6   ar
    24    17    12   ar
    25     6     1   ar
    26    25    19   ar
    27     9    10    1
@<TRIPOS>MOLECULE
*****
 25 27 0 0 0
SMALL
GASTEIGER

@<TRIPOS>ATOM
      1 C          63.0765   89.9516   11.6819 C.ar    1  UNL1        0.0536
      2 C          63.7605   90.0494   13.0133 C.ar    1  UNL1        0.0076
      3 C          64.6885   91.1931   13.2975 C.ar    1  UNL1        0.0376
      4 C          64.9326   92.2390   12.2503 C.ar    1  UNL1        0.1453
      5 C          64.2486   92.1412   10.9189 C.ar    1  UNL1        0.0376
      6 C          63.3206   90.9975   10.6347 C.ar    1  UNL1        0.0076
      7 O          60.6641   89.0202   11.4323 O.2     1  UNL1       -0.2701
      8 C          62.1486   88.8080   11.3976 C.2     1  UNL1        0.2461
      9 N          62.7050   87.4520   11.0787 N.am    1  UNL1       -0.2969
     10 H          63.6794   87.3126   11.0559 H       1  UNL1        0.1501
     11 C          61.7771   86.3083   10.7945 C.3     1  UNL1        0.1167
     12 C          61.5126   85.8912    9.3781 C.ar    1  UNL1        0.0005
     13 C          60.1954   86.2109    8.7356 C.ar    1  UNL1        0.0181
     14 C          59.9310   85.7938    7.3192 C.ar    1  UNL1        0.0986
     15 N          60.9838   85.0570    6.5454 N.ar    1  UNL1       -0.2423
     16 C          62.3009   84.7373    7.1879 C.ar    1  UNL1        0.0986
     17 C          62.5653   85.1544    8.6042 C.ar    1  UNL1        0.0181
     18 O          65.8606   93.3827   12.5345 O.3     1  UNL1       -0.4535
     19 C          66.3468   94.2508   11.4120 C.ar    1  UNL1        0.1454
     20 C          66.0791   95.7265   11.4351 C.ar    1  UNL1        0.0384
     21 C          66.5653   96.5946   10.3126 C.ar    1  UNL1        0.0145
     22 C          67.3192   95.9870    9.1671 C.ar    1  UNL1        0.0579
     23 CL         67.8055   96.8551    8.0446 Cl      1  UNL1       -0.0822
     24 C          67.5869   94.5113    9.1440 C.ar    1  UNL1        0.0145
     25 C          67.1007   93.6432   10.2665 C.ar    1  UNL1        0.0384
@<TRIPOS>BOND
     1     7     8    2
     2     8     9   am
     3     9    11    1
     4    11    12    1
     5    12    13   ar
     6    13    14   ar
     7    14    15   ar
     8    15    16   ar
     9    16    17   ar
    10     8     1    1
    11     1     2   ar
    12     2     3   ar
    13     3     4   ar
    14     4    18    1
    15    18    19    1
    16    19    20   ar
    17    20    21   ar
    18    21    22   ar
    19    22    23    1
    20    22    24   ar
    21    24    25   ar
    22     4     5   ar
    23     5     6   ar
    24    17    12   ar
    25     6     1   ar
    26    25    19   ar
    27     9    10    1
@<TRIPOS>MOLECULE
*****
 25 27 0 0 0
SMALL
GASTEIGER

@<TRIPOS>ATOM
      1 C          61.2179   86.8709    9.6854 C.ar    1  UNL1        0.0536
      2 C          60.4952   86.1092    8.6142 C.ar    1  UNL1        0.0076
      3 C          59.5284   86.8176    7.7125 C.ar    1  UNL1        0.0376
      4 C          59.2842   88.2880    7.8818 C.ar    1  UNL1        0.1453
      5 C          60.0070   89.0498    8.9529 C.ar    1  UNL1        0.0376
      6 C          60.9739   88.3412    9.8547 C.ar    1  UNL1        0.0076
      7 O          62.6729   86.8321   11.8374 O.2     1  UNL1       -0.2701
      8 C          62.1848   86.1625   10.5871 C.2     1  UNL1        0.2461
      9 N          62.6635   84.7843   10.2386 N.am    1  UNL1       -0.2969
     10 H          62.3432   84.3447    9.4180 H       1  UNL1        0.1501
     11 C          63.6304   84.0758   11.1404 C.3     1  UNL1        0.1167
     12 C          63.1208   83.1862   12.2355 C.ar    1  UNL1        0.0005
     13 C          62.8836   81.7293   11.9689 C.ar    1  UNL1        0.0181
     14 C          62.3740   80.8399   13.0640 C.ar    1  UNL1        0.0986
     15 N          62.1017   81.4073   14.4255 N.ar    1  UNL1       -0.2423
     16 C          62.3389   82.8642   14.6920 C.ar    1  UNL1        0.0986
     17 C          62.8484   83.7537   13.5970 C.ar    1  UNL1        0.0181
     18 O          58.3174   88.9964    6.9800 O.3     1  UNL1       -0.4535
     19 C          58.8111   90.0424    6.0249 C.ar    1  UNL1        0.1454
     20 C          60.2730   90.1327    5.7016 C.ar    1  UNL1        0.0384
     21 C          60.7667   91.1786    4.7465 C.ar    1  UNL1        0.0145
     22 C          59.7985   92.1343    4.1146 C.ar    1  UNL1        0.0579
     23 CL         60.2922   93.1802    3.1595 Cl      1  UNL1       -0.0822
     24 C          58.3366   92.0440    4.4379 C.ar    1  UNL1        0.0145
     25 C          57.8429   90.9980    5.3931 C.ar    1  UNL1        0.0384
@<TRIPOS>BOND
     1     7     8    2
     2     8     9   am
     3     9    11    1
     4    11    12    1
     5    12    13   ar
     6    13    14   ar
     7    14    15   ar
     8    15    16   ar
     9    16    17   ar
    10     8     1    1
    11     1     2   ar
    12     2     3   ar
    13     3     4   ar
    14     4    18    1
    15    18    19    1
    16    19    20   ar
    17    20    21   ar
    18    21    22   ar
    19    22    23    1
    20    22    24   ar
    21    24    25   ar
    22     4     5   ar
    23     5     6   ar
    24    17    12   ar
    25     6     1   ar
    26    25    19   ar
    27     9    10    1
@<TRIPOS>MOLECULE
*****
 25 27 0 0 0
SMALL
GASTEIGER

@<TRIPOS>ATOM
      1 C          60.5551   87.7879    9.0264 C.ar    1  UNL1        0.0536
      2 C          60.5896   86.3234    9.3490 C.ar    1  UNL1        0.0076
      3 C          61.4501   85.8227   10.4710 C.ar    1  UNL1        0.0376
      4 C          62.2761   86.7864   11.2704 C.ar    1  UNL1        0.1453
      5 C          62.2415   88.2509   10.9478 C.ar    1  UNL1        0.0376
      6 C          61.3810   88.7517    9.8258 C.ar    1  UNL1        0.0076
      7 O          58.5630   87.4468    7.3940 O.2     1  UNL1       -0.2701
      8 C          59.6947   88.2887    7.9045 C.2     1  UNL1        0.2461
      9 N          59.9659   89.6313    7.2930 N.am    1  UNL1       -0.2969
     10 H          60.7086   90.1838    7.6281 H       1  UNL1        0.1501
     11 C          59.1054   90.1321    6.1710 C.3     1  UNL1        0.1167
     12 C          59.7027   90.9841    5.0905 C.ar    1  UNL1        0.0005
     13 C          58.8404   91.9521    4.3360 C.ar    1  UNL1        0.0181
     14 C          59.4376   92.8041    3.2556 C.ar    1  UNL1        0.0986
     15 N          60.8972   92.6880    2.9297 N.ar    1  UNL1       -0.2423
     16 C          61.7595   91.7200    3.6842 C.ar    1  UNL1        0.0986
     17 C          61.1622   90.8680    4.7646 C.ar    1  UNL1        0.0181
     18 O          63.1365   86.2857   12.3924 O.3     1  UNL1       -0.4535
     19 C          63.1260   84.8298   12.7534 C.ar    1  UNL1        0.1454
     20 C          63.7923   83.8297   11.8558 C.ar    1  UNL1        0.0384
     21 C          63.7818   82.3738   12.2168 C.ar    1  UNL1        0.0145
     22 C          63.1049   81.9181   13.4754 C.ar    1  UNL1        0.0579
     23 CL         63.0944   80.4622   13.8364 Cl      1  UNL1       -0.0822
     24 C          62.4386   82.9182   14.3730 C.ar    1  UNL1        0.0145
     25 C          62.4491   84.3741   14.0120 C.ar    1  UNL1        0.0384
@<TRIPOS>BOND
     1     7     8    2
     2     8     9   am
     3     9    11    1
     4    11    12    1
     5    12    13   ar
     6    13    14   ar
     7    14    15   ar
     8    15    16   ar
     9    16    17   ar
    10     8     1    1
    11     1     2   ar
    12     2     3   ar
    13     3     4   ar
    14     4    18    1
    15    18    19    1
    16    19    20   ar
    17    20    21   ar
    18    21    22   ar
    19    22    23    1
    20    22    24   ar
    21    24    25   ar
    22     4     5   ar
    23     5     6   ar
    24    17    12   ar
    25     6     1   ar
    26    25    19   ar
    27     9    10    1
