@<TRIPOS>MOLECULE
*****
 34 37 0 0 0
SMALL
GASTEIGER

@<TRIPOS>ATOM
      1 O          65.2763   91.9495   10.4400 O.2     1  UNL1       -0.2522
      2 C          65.3179   92.5761   11.8023 C.2     1  UNL1        0.3077
      3 N          65.7356   94.0085   11.9565 N.am    1  UNL1       -0.2668
      4 N          64.9417   91.7703   13.0103 N.am    1  UNL1       -0.2633
      5 C          64.5239   90.3380   12.8560 C.3     1  UNL1        0.0993
      6 C          64.1478   89.5322   14.0640 C.3     1  UNL1        0.0436
      7 C          64.1893   90.1588   15.4262 C.2     1  UNL1       -0.0408
      8 C          63.8131   89.3530   16.6342 C.2     1  UNL1       -0.0083
      9 C          64.6071   91.5912   15.5805 C.3     1  UNL1        0.0436
     10 C          64.9833   92.3969   14.3725 C.3     1  UNL1        0.0993
     11 H          65.7629   94.4197   12.8506 H       1  UNL1        0.1565
     12 C          66.1118   94.8143   10.7485 C.ar    1  UNL1        0.0709
     13 C          67.2697   94.3898    9.8946 C.ar    1  UNL1        0.0179
     14 C          67.6459   95.1956    8.6867 C.ar    1  UNL1        0.0220
     15 C          66.8641   96.4259    8.3326 C.ar    1  UNL1        0.0990
     16 N          65.7063   96.8503    9.1865 N.ar    1  UNL1       -0.2410
     17 C          65.3301   96.0445   10.3944 C.ar    1  UNL1        0.1135
     18 C          63.3954   87.9207   16.4800 C.ar    1  UNL1        0.0024
     19 C          62.4334   87.3107   17.4560 C.ar    1  UNL1        0.0002
     20 C          62.0156   85.8784   17.3017 C.ar    1  UNL1        0.0031
     21 C          62.5599   85.0559   16.1715 C.ar    1  UNL1        0.0376
     22 C          63.5218   85.6659   15.1955 C.ar    1  UNL1        0.1472
     23 C          63.9396   87.0983   15.3498 C.ar    1  UNL1        0.0375
     24 O          64.0661   84.8435   14.0652 O.3     1  UNL1       -0.4361
     25 C          63.5277   85.0269   12.6772 C.ar    1  UNL1        0.2297
     26 C          63.7290   83.9552   11.6471 C.ar    1  UNL1        0.0581
     27 C          63.1906   84.1385   10.2591 C.ar    1  UNL1        0.0102
     28 C          62.4511   85.3935    9.9012 C.ar    1  UNL1        0.0907
     29 C          62.2498   86.4651   10.9313 C.ar    1  UNL1        0.1059
     30 N          62.7881   86.2818   12.3193 N.ar    1  UNL1       -0.2099
     31 C          61.9127   85.5768    8.5132 C.3     1  UNL1        0.4200
     32 F          61.3743   85.7602    7.1252 F       1  UNL1       -0.1658
     33 F          60.5649   85.9113    9.0801 F       1  UNL1       -0.1658
     34 F          63.2605   85.2424    7.9462 F       1  UNL1       -0.1658
@<TRIPOS>BOND
     1     1     2    2
     2     2     3   am
     3     3    12    1
     4    12    13   ar
     5    13    14   ar
     6    14    15   ar
     7    15    16   ar
     8    16    17   ar
     9     2     4   am
    10     4     5    1
    11     5     6    1
    12     6     7    1
    13     7     8    2
    14     8    18    1
    15    18    19   ar
    16    19    20   ar
    17    20    21   ar
    18    21    22   ar
    19    22    24    1
    20    24    25    1
    21    25    26   ar
    22    26    27   ar
    23    27    28   ar
    24    28    31    1
    25    31    32    1
    26    31    33    1
    27    31    34    1
    28    28    29   ar
    29    29    30   ar
    30    22    23   ar
    31     7     9    1
    32     9    10    1
    33    17    12   ar
    34    10     4    1
    35    23    18   ar
    36    30    25   ar
    37     3    11    1
@<TRIPOS>MOLECULE
*****
 34 37 0 0 0
SMALL
GASTEIGER

@<TRIPOS>ATOM
      1 O          63.9793   83.8958   14.5753 O.2     1  UNL1       -0.2522
      2 C          63.2685   84.5183   13.4102 C.2     1  UNL1        0.3077
      3 N          62.4623   83.6623   12.4791 N.am    1  UNL1       -0.2668
      4 N          63.3640   85.9970   13.1764 N.am    1  UNL1       -0.2633
      5 C          64.1703   86.8530   14.1076 C.3     1  UNL1        0.0993
      6 C          64.2657   88.3315   13.8737 C.3     1  UNL1        0.0436
      7 C          63.5550   88.9540   12.7087 C.2     1  UNL1       -0.0408
      8 C          63.6505   90.4327   12.4748 C.2     1  UNL1       -0.0083
      9 C          62.7487   88.0980   11.7775 C.3     1  UNL1        0.0436
     10 C          62.6533   86.6195   12.0114 C.3     1  UNL1        0.0993
     11 H          61.9958   84.0709   11.7144 H       1  UNL1        0.1565
     12 C          62.3668   82.1837   12.7129 C.ar    1  UNL1        0.0709
     13 C          61.7147   81.6620   13.9589 C.ar    1  UNL1        0.0179
     14 C          61.6192   80.1834   14.1927 C.ar    1  UNL1        0.0220
     15 C          62.1758   79.2265   13.1805 C.ar    1  UNL1        0.0990
     16 N          62.8279   79.7482   11.9345 N.ar    1  UNL1       -0.2410
     17 C          62.9233   81.2268   11.7007 C.ar    1  UNL1        0.1135
     18 C          64.4567   91.2887   13.4060 C.ar    1  UNL1        0.0024
     19 C          64.4281   91.0241   14.8822 C.ar    1  UNL1        0.0002
     20 C          65.2343   91.8802   15.8134 C.ar    1  UNL1        0.0031
     21 C          66.0693   93.0009   15.2683 C.ar    1  UNL1        0.0376
     22 C          66.0979   93.2655   13.7921 C.ar    1  UNL1        0.1472
     23 C          65.2916   92.4094   12.8610 C.ar    1  UNL1        0.0375
     24 O          66.9328   94.3861   13.2471 O.3     1  UNL1       -0.4361
     25 C          66.7051   94.8796   11.8490 C.ar    1  UNL1        0.2297
     26 C          66.0134   96.1907   11.6198 C.ar    1  UNL1        0.0581
     27 C          65.7857   96.6843   10.2217 C.ar    1  UNL1        0.0102
     28 C          66.2498   95.8667    9.0529 C.ar    1  UNL1        0.0907
     29 C          66.9416   94.5556    9.2821 C.ar    1  UNL1        0.1059
     30 N          67.1692   94.0621   10.6802 N.ar    1  UNL1       -0.2099
     31 C          66.0222   96.3603    7.6548 C.3     1  UNL1        0.4200
     32 F          65.7945   96.8538    6.2568 F       1  UNL1       -0.1658
     33 F          64.6586   96.8458    8.0483 F       1  UNL1       -0.1658
     34 F          67.3857   95.8747    7.2613 F       1  UNL1       -0.1658
@<TRIPOS>BOND
     1     1     2    2
     2     2     3   am
     3     3    12    1
     4    12    13   ar
     5    13    14   ar
     6    14    15   ar
     7    15    16   ar
     8    16    17   ar
     9     2     4   am
    10     4     5    1
    11     5     6    1
    12     6     7    1
    13     7     8    2
    14     8    18    1
    15    18    19   ar
    16    19    20   ar
    17    20    21   ar
    18    21    22   ar
    19    22    24    1
    20    24    25    1
    21    25    26   ar
    22    26    27   ar
    23    27    28   ar
    24    28    31    1
    25    31    32    1
    26    31    33    1
    27    31    34    1
    28    28    29   ar
    29    29    30   ar
    30    22    23   ar
    31     7     9    1
    32     9    10    1
    33    17    12   ar
    34    10     4    1
    35    23    18   ar
    36    30    25   ar
    37     3    11    1
@<TRIPOS>MOLECULE
*****
 34 37 0 0 0
SMALL
GASTEIGER

@<TRIPOS>ATOM
      1 O          61.7048   94.2755   -2.2707 O.2     1  UNL1       -0.2522
      2 C          62.8779   93.9304   -1.4019 C.2     1  UNL1        0.3077
      3 N          64.2737   94.1628   -1.8994 N.am    1  UNL1       -0.2668
      4 N          62.6550   93.3529   -0.0355 N.am    1  UNL1       -0.2633
      5 C          61.2592   93.1204    0.4620 C.3     1  UNL1        0.0993
      6 C          61.0364   92.5429    1.8283 C.3     1  UNL1        0.0436
      7 C          62.2095   92.1979    2.6971 C.2     1  UNL1       -0.0408
      8 C          61.9867   91.6203    4.0634 C.2     1  UNL1       -0.0083
      9 C          63.6053   92.4303    2.1996 C.3     1  UNL1        0.0436
     10 C          63.8281   93.0078    0.8333 C.3     1  UNL1        0.0993
     11 H          65.0436   93.9363   -1.3291 H       1  UNL1        0.1565
     12 C          64.4966   94.7404   -3.2657 C.ar    1  UNL1        0.0709
     13 C          64.6270   93.8316   -4.4519 C.ar    1  UNL1        0.0179
     14 C          64.8498   94.4092   -5.8182 C.ar    1  UNL1        0.0220
     15 C          64.9422   95.8954   -5.9983 C.ar    1  UNL1        0.0990
     16 N          64.8118   96.8042   -4.8121 N.ar    1  UNL1       -0.2410
     17 C          64.5889   96.2266   -3.4458 C.ar    1  UNL1        0.1135
     18 C          60.5908   91.3879    4.5609 C.ar    1  UNL1        0.0024
     19 C          59.5006   92.3591    4.2172 C.ar    1  UNL1        0.0002
     20 C          58.1048   92.1267    4.7146 C.ar    1  UNL1        0.0031
     21 C          57.7991   90.9230    5.5560 C.ar    1  UNL1        0.0376
     22 C          58.8893   89.9518    5.8997 C.ar    1  UNL1        0.1472
     23 C          60.2852   90.1842    5.4022 C.ar    1  UNL1        0.0375
     24 O          58.5836   88.7481    6.7410 O.3     1  UNL1       -0.4361
     25 C          59.5192   88.3456    7.8423 C.ar    1  UNL1        0.2297
     26 C          59.8872   86.9028    8.0239 C.ar    1  UNL1        0.0581
     27 C          60.8227   86.5003    9.1251 C.ar    1  UNL1        0.0102
     28 C          61.3902   87.5405   10.0448 C.ar    1  UNL1        0.0907
     29 C          61.0221   88.9833    9.8632 C.ar    1  UNL1        0.1059
     30 N          60.0866   89.3858    8.7620 N.ar    1  UNL1       -0.2099
     31 C          62.3257   87.1380   11.1461 C.3     1  UNL1        0.4200
     32 F          63.2612   86.7355   12.2473 F       1  UNL1       -0.1658
     33 F          61.8500   85.7201   11.0319 F       1  UNL1       -0.1658
     34 F          62.8014   88.5560   11.2603 F       1  UNL1       -0.1658
@<TRIPOS>BOND
     1     1     2    2
     2     2     3   am
     3     3    12    1
     4    12    13   ar
     5    13    14   ar
     6    14    15   ar
     7    15    16   ar
     8    16    17   ar
     9     2     4   am
    10     4     5    1
    11     5     6    1
    12     6     7    1
    13     7     8    2
    14     8    18    1
    15    18    19   ar
    16    19    20   ar
    17    20    21   ar
    18    21    22   ar
    19    22    24    1
    20    24    25    1
    21    25    26   ar
    22    26    27   ar
    23    27    28   ar
    24    28    31    1
    25    31    32    1
    26    31    33    1
    27    31    34    1
    28    28    29   ar
    29    29    30   ar
    30    22    23   ar
    31     7     9    1
    32     9    10    1
    33    17    12   ar
    34    10     4    1
    35    23    18   ar
    36    30    25   ar
    37     3    11    1
@<TRIPOS>MOLECULE
*****
 34 37 0 0 0
SMALL
GASTEIGER

@<TRIPOS>ATOM
      1 O          59.6738   93.2921   -2.8524 O.2     1  UNL1       -0.2522
      2 C          60.9783   93.4587   -2.1310 C.2     1  UNL1        0.3077
      3 N          62.1821   93.9689   -2.8662 N.am    1  UNL1       -0.2668
      4 N          61.0791   93.1149   -0.6744 N.am    1  UNL1       -0.2633
      5 C          59.8753   92.6046    0.0608 C.3     1  UNL1        0.0993
      6 C          59.9761   92.2609    1.5174 C.3     1  UNL1        0.0436
      7 C          61.2806   92.4275    2.2388 C.2     1  UNL1       -0.0408
      8 C          61.3814   92.0838    3.6954 C.2     1  UNL1       -0.0083
      9 C          62.4844   92.9378    1.5036 C.3     1  UNL1        0.0436
     10 C          62.3836   93.2815    0.0470 C.3     1  UNL1        0.0993
     11 H          63.0383   94.0783   -2.3927 H       1  UNL1        0.1565
     12 C          62.0813   94.3127   -4.3229 C.ar    1  UNL1        0.0709
     13 C          62.9722   93.6299   -5.3179 C.ar    1  UNL1        0.0179
     14 C          62.8714   93.9737   -6.7745 C.ar    1  UNL1        0.0220
     15 C          61.8798   95.0002   -7.2360 C.ar    1  UNL1        0.0990
     16 N          60.9890   95.6830   -6.2409 N.ar    1  UNL1       -0.2410
     17 C          61.0897   95.3392   -4.7844 C.ar    1  UNL1        0.1135
     18 C          60.1776   91.5735    4.4306 C.ar    1  UNL1        0.0024
     19 C          58.8614   92.2803    4.2964 C.ar    1  UNL1        0.0002
     20 C          57.6577   91.7700    5.0315 C.ar    1  UNL1        0.0031
     21 C          57.7701   90.5528    5.9010 C.ar    1  UNL1        0.0376
     22 C          59.0862   89.8460    6.0352 C.ar    1  UNL1        0.1472
     23 C          60.2900   90.3563    5.3000 C.ar    1  UNL1        0.0375
     24 O          59.1987   88.6289    6.9046 O.3     1  UNL1       -0.4361
     25 C          60.1235   88.6336    8.0857 C.ar    1  UNL1        0.2297
     26 C          60.2816   89.8772    8.9094 C.ar    1  UNL1        0.0581
     27 C          61.2064   89.8819   10.0904 C.ar    1  UNL1        0.0102
     28 C          61.9729   88.6431   10.4477 C.ar    1  UNL1        0.0907
     29 C          61.8148   87.3996    9.6239 C.ar    1  UNL1        0.1059
     30 N          60.8900   87.3948    8.4430 N.ar    1  UNL1       -0.2099
     31 C          62.8977   88.6479   11.6287 C.3     1  UNL1        0.4200
     32 F          63.8225   88.6525   12.8097 F       1  UNL1       -0.1658
     33 F          62.7524   87.1598   11.7485 F       1  UNL1       -0.1658
     34 F          63.0431   90.1360   11.5090 F       1  UNL1       -0.1658
@<TRIPOS>BOND
     1     1     2    2
     2     2     3   am
     3     3    12    1
     4    12    13   ar
     5    13    14   ar
     6    14    15   ar
     7    15    16   ar
     8    16    17   ar
     9     2     4   am
    10     4     5    1
    11     5     6    1
    12     6     7    1
    13     7     8    2
    14     8    18    1
    15    18    19   ar
    16    19    20   ar
    17    20    21   ar
    18    21    22   ar
    19    22    24    1
    20    24    25    1
    21    25    26   ar
    22    26    27   ar
    23    27    28   ar
    24    28    31    1
    25    31    32    1
    26    31    33    1
    27    31    34    1
    28    28    29   ar
    29    29    30   ar
    30    22    23   ar
    31     7     9    1
    32     9    10    1
    33    17    12   ar
    34    10     4    1
    35    23    18   ar
    36    30    25   ar
    37     3    11    1
@<TRIPOS>MOLECULE
*****
 34 37 0 0 0
SMALL
GASTEIGER

@<TRIPOS>ATOM
      1 O          63.0503   88.1893   11.9545 O.2     1  UNL1       -0.2522
      2 C          62.1197   87.1619   11.3816 C.2     1  UNL1        0.3077
      3 N          61.9997   85.8144   12.0294 N.am    1  UNL1       -0.2668
      4 N          61.3090   87.4820   10.1607 N.am    1  UNL1       -0.2633
      5 C          61.4290   88.8295    9.5128 C.3     1  UNL1        0.0993
      6 C          60.6183   89.1496    8.2921 C.3     1  UNL1        0.0436
      7 C          59.6876   88.1221    7.7192 C.2     1  UNL1       -0.0408
      8 C          58.8770   88.4422    6.4983 C.2     1  UNL1       -0.0083
      9 C          59.5676   86.7746    8.3670 C.3     1  UNL1        0.0436
     10 C          60.3783   86.4546    9.5878 C.3     1  UNL1        0.0993
     11 H          61.3888   85.1400   11.6534 H       1  UNL1        0.1565
     12 C          62.8103   85.4943   13.2503 C.ar    1  UNL1        0.0709
     13 C          63.8247   86.4768   13.7559 C.ar    1  UNL1        0.0179
     14 C          64.6353   86.1567   14.9767 C.ar    1  UNL1        0.0220
     15 C          64.4316   84.8540   15.6919 C.ar    1  UNL1        0.0990
     16 N          63.4172   83.8714   15.1862 N.ar    1  UNL1       -0.2410
     17 C          62.6066   84.1916   13.9655 C.ar    1  UNL1        0.1135
     18 C          58.9970   89.7897    5.8504 C.ar    1  UNL1        0.0024
     19 C          57.7953   90.6814    5.7459 C.ar    1  UNL1        0.0002
     20 C          57.9153   92.0289    5.0980 C.ar    1  UNL1        0.0031
     21 C          59.2370   92.4848    4.5547 C.ar    1  UNL1        0.0376
     22 C          60.4387   91.5932    4.6592 C.ar    1  UNL1        0.1472
     23 C          60.3187   90.2456    5.3071 C.ar    1  UNL1        0.0375
     24 O          61.7604   92.0490    4.1159 O.3     1  UNL1       -0.4361
     25 C          61.8878   92.4227    2.6687 C.ar    1  UNL1        0.2297
     26 C          63.2149   92.8560    2.1200 C.ar    1  UNL1        0.0581
     27 C          63.3424   93.2297    0.6729 C.ar    1  UNL1        0.0102
     28 C          62.1427   93.1700   -0.2255 C.ar    1  UNL1        0.0907
     29 C          60.8156   92.7367    0.3232 C.ar    1  UNL1        0.1059
     30 N          60.6881   92.3630    1.7703 N.ar    1  UNL1       -0.2099
     31 C          62.2701   93.5437   -1.6727 C.3     1  UNL1        0.4200
     32 F          62.3975   93.9173   -3.1197 F       1  UNL1       -0.1658
     33 F          60.8117   93.2573   -1.8749 F       1  UNL1       -0.1658
     34 F          63.7285   93.8300   -1.4704 F       1  UNL1       -0.1658
@<TRIPOS>BOND
     1     1     2    2
     2     2     3   am
     3     3    12    1
     4    12    13   ar
     5    13    14   ar
     6    14    15   ar
     7    15    16   ar
     8    16    17   ar
     9     2     4   am
    10     4     5    1
    11     5     6    1
    12     6     7    1
    13     7     8    2
    14     8    18    1
    15    18    19   ar
    16    19    20   ar
    17    20    21   ar
    18    21    22   ar
    19    22    24    1
    20    24    25    1
    21    25    26   ar
    22    26    27   ar
    23    27    28   ar
    24    28    31    1
    25    31    32    1
    26    31    33    1
    27    31    34    1
    28    28    29   ar
    29    29    30   ar
    30    22    23   ar
    31     7     9    1
    32     9    10    1
    33    17    12   ar
    34    10     4    1
    35    23    18   ar
    36    30    25   ar
    37     3    11    1
@<TRIPOS>MOLECULE
*****
 34 37 0 0 0
SMALL
GASTEIGER

@<TRIPOS>ATOM
      1 O          62.9714   83.8484   12.2336 O.2     1  UNL1       -0.2522
      2 C          63.0055   84.1870   13.6945 C.2     1  UNL1        0.3077
      3 N          62.6674   83.1409   14.7149 N.am    1  UNL1       -0.2668
      4 N          63.3778   85.5718   14.1349 N.am    1  UNL1       -0.2633
      5 C          63.7159   86.6179   13.1145 C.3     1  UNL1        0.0993
      6 C          64.0881   88.0026   13.5550 C.3     1  UNL1        0.0436
      7 C          64.1222   88.3412   15.0158 C.2     1  UNL1       -0.0408
      8 C          64.4944   89.7260   15.4563 C.2     1  UNL1       -0.0083
      9 C          63.7841   87.2951   16.0363 C.3     1  UNL1        0.0436
     10 C          63.4119   85.9104   15.5958 C.3     1  UNL1        0.0993
     11 H          62.6898   83.3632   15.6738 H       1  UNL1        0.1565
     12 C          62.2952   81.7562   14.2745 C.ar    1  UNL1        0.0709
     13 C          60.8698   81.2980   14.3653 C.ar    1  UNL1        0.0179
     14 C          60.4976   79.9133   13.9249 C.ar    1  UNL1        0.0220
     15 C          61.5508   78.9867   13.3937 C.ar    1  UNL1        0.0990
     16 N          62.9762   79.4449   13.3028 N.ar    1  UNL1       -0.2410
     17 C          63.3484   80.8296   13.7433 C.ar    1  UNL1        0.1135
     18 C          64.8325   90.7721   14.4358 C.ar    1  UNL1        0.0024
     19 C          65.9793   91.7092   14.6740 C.ar    1  UNL1        0.0002
     20 C          66.3174   92.7553   13.6536 C.ar    1  UNL1        0.0031
     21 C          65.5087   92.8643   12.3949 C.ar    1  UNL1        0.0376
     22 C          64.3620   91.9272   12.1567 C.ar    1  UNL1        0.1472
     23 C          64.0239   90.8810   13.1772 C.ar    1  UNL1        0.0375
     24 O          63.5533   92.0361   10.8981 O.3     1  UNL1       -0.4361
     25 C          62.6304   90.9223   10.5008 C.ar    1  UNL1        0.2297
     26 C          63.1921   89.5934   10.0900 C.ar    1  UNL1        0.0581
     27 C          62.2693   88.4797    9.6927 C.ar    1  UNL1        0.0102
     28 C          60.7849   88.6947    9.7061 C.ar    1  UNL1        0.0907
     29 C          60.2233   90.0236   10.1168 C.ar    1  UNL1        0.1059
     30 N          61.1460   91.1374   10.5142 N.ar    1  UNL1       -0.2099
     31 C          59.8620   87.5809    9.3087 C.3     1  UNL1        0.4200
     32 F          58.9392   86.4672    8.9114 F       1  UNL1       -0.1658
     33 F          59.2584   88.4580    8.2522 F       1  UNL1       -0.1658
     34 F          60.4656   86.7038   10.3653 F       1  UNL1       -0.1658
@<TRIPOS>BOND
     1     1     2    2
     2     2     3   am
     3     3    12    1
     4    12    13   ar
     5    13    14   ar
     6    14    15   ar
     7    15    16   ar
     8    16    17   ar
     9     2     4   am
    10     4     5    1
    11     5     6    1
    12     6     7    1
    13     7     8    2
    14     8    18    1
    15    18    19   ar
    16    19    20   ar
    17    20    21   ar
    18    21    22   ar
    19    22    24    1
    20    24    25    1
    21    25    26   ar
    22    26    27   ar
    23    27    28   ar
    24    28    31    1
    25    31    32    1
    26    31    33    1
    27    31    34    1
    28    28    29   ar
    29    29    30   ar
    30    22    23   ar
    31     7     9    1
    32     9    10    1
    33    17    12   ar
    34    10     4    1
    35    23    18   ar
    36    30    25   ar
    37     3    11    1
@<TRIPOS>MOLECULE
*****
 34 37 0 0 0
SMALL
GASTEIGER

@<TRIPOS>ATOM
      1 O          64.9619   91.7217   10.5318 O.2     1  UNL1       -0.2522
      2 C          65.1329   91.9909   11.9975 C.2     1  UNL1        0.3077
      3 N          65.6309   93.3275   12.4615 N.am    1  UNL1       -0.2668
      4 N          64.8057   90.9233   12.9993 N.am    1  UNL1       -0.2633
      5 C          64.3077   89.5867   12.5353 C.3     1  UNL1        0.0993
      6 C          63.9806   88.5192   13.5370 C.3     1  UNL1        0.0436
      7 C          64.1515   88.7884   15.0027 C.2     1  UNL1       -0.0408
      8 C          63.8244   87.7209   16.0045 C.2     1  UNL1       -0.0083
      9 C          64.6496   90.1250   15.4667 C.3     1  UNL1        0.0436
     10 C          64.9766   91.1925   14.4650 C.3     1  UNL1        0.0993
     11 H          65.7430   93.5042   13.4235 H       1  UNL1        0.1565
     12 C          65.9580   94.3950   11.4598 C.ar    1  UNL1        0.0709
     13 C          65.9742   94.0700    9.9956 C.ar    1  UNL1        0.0179
     14 C          66.3013   95.1375    8.9939 C.ar    1  UNL1        0.0220
     15 C          66.6122   96.5301    9.4565 C.ar    1  UNL1        0.0990
     16 N          66.5961   96.8552   10.9207 N.ar    1  UNL1       -0.2410
     17 C          66.2689   95.7876   11.9224 C.ar    1  UNL1        0.1135
     18 C          63.3264   86.3842   15.5405 C.ar    1  UNL1        0.0024
     19 C          62.7543   85.4124   16.5295 C.ar    1  UNL1        0.0002
     20 C          62.2563   84.0757   16.0655 C.ar    1  UNL1        0.0031
     21 C          62.3303   83.7109   14.6124 C.ar    1  UNL1        0.0376
     22 C          62.9024   84.6827   13.6234 C.ar    1  UNL1        0.1472
     23 C          63.4005   86.0194   14.0874 C.ar    1  UNL1        0.0375
     24 O          62.9765   84.3180   12.1703 O.3     1  UNL1       -0.4361
     25 C          62.2744   85.1622   11.1483 C.ar    1  UNL1        0.2297
     26 C          62.4583   84.8786    9.6869 C.ar    1  UNL1        0.0581
     27 C          61.7562   85.7228    8.6649 C.ar    1  UNL1        0.0102
     28 C          60.8704   86.8506    9.1044 C.ar    1  UNL1        0.0907
     29 C          60.6865   87.1343   10.5658 C.ar    1  UNL1        0.1059
     30 N          61.3885   86.2901   11.5878 N.ar    1  UNL1       -0.2099
     31 C          60.1683   87.6949    8.0824 C.3     1  UNL1        0.4200
     32 F          59.4662   88.5390    7.0604 F       1  UNL1       -0.1658
     33 F          60.3017   86.5893    7.0775 F       1  UNL1       -0.1658
     34 F          60.0348   88.8004    9.0873 F       1  UNL1       -0.1658
@<TRIPOS>BOND
     1     1     2    2
     2     2     3   am
     3     3    12    1
     4    12    13   ar
     5    13    14   ar
     6    14    15   ar
     7    15    16   ar
     8    16    17   ar
     9     2     4   am
    10     4     5    1
    11     5     6    1
    12     6     7    1
    13     7     8    2
    14     8    18    1
    15    18    19   ar
    16    19    20   ar
    17    20    21   ar
    18    21    22   ar
    19    22    24    1
    20    24    25    1
    21    25    26   ar
    22    26    27   ar
    23    27    28   ar
    24    28    31    1
    25    31    32    1
    26    31    33    1
    27    31    34    1
    28    28    29   ar
    29    29    30   ar
    30    22    23   ar
    31     7     9    1
    32     9    10    1
    33    17    12   ar
    34    10     4    1
    35    23    18   ar
    36    30    25   ar
    37     3    11    1
