@<TRIPOS>MOLECULE
*****
 33 36 0 0 0
SMALL
GASTEIGER

@<TRIPOS>ATOM
      1 N          60.7832   89.0311   11.0900 N.am    1  UNL1       -0.2533
      2 C          62.0601   89.6843   11.5290 C.2     1  UNL1        0.3092
      3 O          63.0426   90.1733   10.5063 O.2     1  UNL1       -0.2521
      4 N          62.3546   89.8487   12.9906 N.am    1  UNL1       -0.2680
      5 H          60.1384   88.7102   11.7612 H       1  UNL1        0.1578
      6 H          61.7098   89.5279   13.6618 H       1  UNL1        0.1564
      7 C          63.6315   90.5020   13.4295 C.ar    1  UNL1        0.0517
      8 C          64.2244   91.6129   12.6143 C.ar    1  UNL1        0.0162
      9 C          65.5013   92.2662   13.0533 C.ar    1  UNL1        0.0188
     10 C          66.1854   91.8087   14.3073 C.ar    1  UNL1        0.0656
     11 C          65.5925   90.6978   15.1225 C.ar    1  UNL1        0.0188
     12 C          64.3156   90.0445   14.6835 C.ar    1  UNL1        0.0162
     13 N          67.4623   92.4620   14.7463 N.ar    1  UNL1       -0.2864
     14 C          67.6079   93.4499   15.8656 C.ar    1  UNL1        0.1022
     15 C          69.0534   93.8405   15.9540 C.ar    1  UNL1        0.1196
     16 N          69.8013   93.0940   14.8894 N.ar    1  UNL1       -0.2220
     17 C          68.8179   92.2420   14.1429 C.ar    1  UNL1        0.1828
     18 N          60.8862   87.6991    8.7748 N.ar    1  UNL1       -0.2162
     19 N          60.3882   87.9519    7.3827 N.ar    1  UNL1       -0.1683
     20 C          59.6828   89.2757    7.3759 C.ar    1  UNL1        0.0810
     21 C          59.7450   89.8411    8.7639 C.ar    1  UNL1        0.0509
     22 C          60.4887   88.8667    9.6284 C.ar    1  UNL1        0.1380
     23 C          63.9336   82.8662   10.6070 C.3     1  UNL1        0.0310
     24 C          63.1717   84.0744   10.1490 C.ar    1  UNL1       -0.0218
     25 C          63.3107   84.5574    8.7357 C.ar    1  UNL1       -0.0027
     26 C          62.5489   85.7656    8.2776 C.ar    1  UNL1        0.0189
     27 C          61.6481   86.4909    9.2328 C.ar    1  UNL1        0.0842
     28 C          61.5091   86.0079   10.6461 C.ar    1  UNL1        0.0189
     29 C          62.2709   84.7997   11.1042 C.ar    1  UNL1       -0.0027
     30 C          59.0300   89.9208    6.1895 C.3     1  UNL1        0.0372
     31 C          60.3541   90.4853    5.7678 C.3     1  UNL1        0.0060
     32 C          57.7058   89.3562    6.6111 C.3     1  UNL1        0.0060
     33 C          58.3771   90.5659    5.0030 C.3     1  UNL1        0.0060
@<TRIPOS>BOND
     1    23    24    1
     2    24    25   ar
     3    25    26   ar
     4    26    27   ar
     5    27    18    1
     6    18    19   ar
     7    19    20   ar
     8    20    30    1
     9    30    31    1
    10    30    32    1
    11    30    33    1
    12    20    21   ar
    13    21    22   ar
    14    22     1    1
    15     1     2   am
    16     2     3    2
    17     2     4   am
    18     4     7    1
    19     7     8   ar
    20     8     9   ar
    21     9    10   ar
    22    10    13    1
    23    13    14   ar
    24    14    15   ar
    25    15    16   ar
    26    16    17   ar
    27    10    11   ar
    28    11    12   ar
    29    27    28   ar
    30    28    29   ar
    31    29    24   ar
    32    22    18   ar
    33    12     7   ar
    34    17    13   ar
    35     1     5    1
    36     4     6    1
@<TRIPOS>MOLECULE
*****
 33 36 0 0 0
SMALL
GASTEIGER

@<TRIPOS>ATOM
      1 N          63.5237   88.4377   15.0819 N.am    1  UNL1       -0.2533
      2 C          63.4956   87.1787   14.2670 C.2     1  UNL1        0.3092
      3 O          63.9810   87.1929   12.8477 O.2     1  UNL1       -0.2521
      4 N          62.9822   85.9054   14.8713 N.am    1  UNL1       -0.2680
      5 H          63.2051   88.4283   16.0134 H       1  UNL1        0.1578
      6 H          62.6636   85.8960   15.8028 H       1  UNL1        0.1564
      7 C          62.9541   84.6464   14.0563 C.ar    1  UNL1        0.0517
      8 C          62.7448   84.7179   12.5727 C.ar    1  UNL1        0.0162
      9 C          62.7168   83.4589   11.7577 C.ar    1  UNL1        0.0188
     10 C          62.8980   82.1285   12.4263 C.ar    1  UNL1        0.0656
     11 C          63.1072   82.0570   13.9099 C.ar    1  UNL1        0.0188
     12 C          63.1353   83.3160   14.7249 C.ar    1  UNL1        0.0162
     13 N          62.8699   80.8695   11.6114 N.ar    1  UNL1       -0.2864
     14 C          63.0740   80.7744   10.1283 C.ar    1  UNL1        0.1022
     15 C          62.9631   79.3307    9.7368 C.ar    1  UNL1        0.1196
     16 N          62.6904   78.5335   10.9778 N.ar    1  UNL1       -0.2220
     17 C          62.6328   79.4845   12.1364 C.ar    1  UNL1        0.1828
     18 N          63.5854   90.3169   13.1819 N.ar    1  UNL1       -0.2162
     19 N          64.3615   91.5823   12.9665 N.ar    1  UNL1       -0.1683
     20 C          65.2929   91.7584   14.1291 C.ar    1  UNL1        0.0810
     21 C          65.0924   90.6019   15.0630 C.ar    1  UNL1        0.0509
     22 C          64.0371   89.7110   14.4776 C.ar    1  UNL1        0.1380
     23 C          59.4076   88.0730    9.5062 C.3     1  UNL1        0.0310
     24 C          60.4520   88.6340   10.4251 C.ar    1  UNL1       -0.0218
     25 C          60.0633   89.1390   11.7830 C.ar    1  UNL1       -0.0027
     26 C          61.1077   89.7000   12.7019 C.ar    1  UNL1        0.0189
     27 C          62.5409   89.7559   12.2630 C.ar    1  UNL1        0.0842
     28 C          62.9297   89.2509   10.9051 C.ar    1  UNL1        0.0189
     29 C          61.8853   88.6900    9.9862 C.ar    1  UNL1       -0.0027
     30 C          66.2557   92.8920   14.3235 C.3     1  UNL1        0.0372
     31 C          66.3244   92.5822   15.7896 C.3     1  UNL1        0.0060
     32 C          66.1870   93.2019   12.8575 C.3     1  UNL1        0.0060
     33 C          67.2186   94.0257   14.5180 C.3     1  UNL1        0.0060
@<TRIPOS>BOND
     1    23    24    1
     2    24    25   ar
     3    25    26   ar
     4    26    27   ar
     5    27    18    1
     6    18    19   ar
     7    19    20   ar
     8    20    30    1
     9    30    31    1
    10    30    32    1
    11    30    33    1
    12    20    21   ar
    13    21    22   ar
    14    22     1    1
    15     1     2   am
    16     2     3    2
    17     2     4   am
    18     4     7    1
    19     7     8   ar
    20     8     9   ar
    21     9    10   ar
    22    10    13    1
    23    13    14   ar
    24    14    15   ar
    25    15    16   ar
    26    16    17   ar
    27    10    11   ar
    28    11    12   ar
    29    27    28   ar
    30    28    29   ar
    31    29    24   ar
    32    22    18   ar
    33    12     7   ar
    34    17    13   ar
    35     1     5    1
    36     4     6    1
@<TRIPOS>MOLECULE
*****
 33 36 0 0 0
SMALL
GASTEIGER

@<TRIPOS>ATOM
      1 N          62.8892   86.5533   14.3462 N.am    1  UNL1       -0.2533
      2 C          63.4909   87.7018   13.5921 C.2     1  UNL1        0.3092
      3 O          63.9320   87.5167   12.1704 O.2     1  UNL1       -0.2521
      4 N          63.6515   89.0355   14.2595 N.am    1  UNL1       -0.2680
      5 H          62.5997   86.6748   15.2793 H       1  UNL1        0.1578
      6 H          63.3620   89.1570   15.1926 H       1  UNL1        0.1564
      7 C          64.2532   90.1840   13.5053 C.ar    1  UNL1        0.0517
      8 C          65.4474   90.9023   14.0602 C.ar    1  UNL1        0.0162
      9 C          66.0491   92.0508   13.3059 C.ar    1  UNL1        0.0188
     10 C          65.4567   92.4810   11.9968 C.ar    1  UNL1        0.0656
     11 C          64.2625   91.7627   11.4419 C.ar    1  UNL1        0.0188
     12 C          63.6608   90.6142   12.1961 C.ar    1  UNL1        0.0162
     13 N          66.0584   93.6295   11.2426 N.ar    1  UNL1       -0.2864
     14 C          66.6920   93.5575    9.8849 C.ar    1  UNL1        0.1022
     15 C          67.1574   94.9351    9.5168 C.ar    1  UNL1        0.1196
     16 N          66.8113   95.8586   10.6470 N.ar    1  UNL1       -0.2220
     17 C          66.1321   95.0517   11.7136 C.ar    1  UNL1        0.1828
     18 N          62.1792   84.9825   12.3033 N.ar    1  UNL1       -0.2162
     19 N          62.2002   83.5052   12.0442 N.ar    1  UNL1       -0.1683
     20 C          62.7626   82.8293   13.2595 C.ar    1  UNL1        0.0810
     21 C          63.0891   83.8889   14.2698 C.ar    1  UNL1        0.0509
     22 C          62.7286   85.2196   13.6788 C.ar    1  UNL1        0.1380
     23 C          60.2384   89.2022    8.5050 C.3     1  UNL1        0.0310
     24 C          60.7236   88.1473    9.4546 C.ar    1  UNL1       -0.0218
     25 C          61.7020   87.1105    8.9877 C.ar    1  UNL1       -0.0027
     26 C          62.1872   86.0556    9.9373 C.ar    1  UNL1        0.0189
     27 C          61.6940   86.0374   11.3537 C.ar    1  UNL1        0.0842
     28 C          60.7156   87.0741   11.8206 C.ar    1  UNL1        0.0189
     29 C          60.2305   88.1290   10.8710 C.ar    1  UNL1       -0.0027
     30 C          62.9632   81.3530   13.4338 C.3     1  UNL1        0.0372
     31 C          64.3002   81.4553   12.7617 C.3     1  UNL1        0.0060
     32 C          61.6261   81.2507   14.1060 C.3     1  UNL1        0.0060
     33 C          63.1638   79.8768   13.6082 C.3     1  UNL1        0.0060
@<TRIPOS>BOND
     1    23    24    1
     2    24    25   ar
     3    25    26   ar
     4    26    27   ar
     5    27    18    1
     6    18    19   ar
     7    19    20   ar
     8    20    30    1
     9    30    31    1
    10    30    32    1
    11    30    33    1
    12    20    21   ar
    13    21    22   ar
    14    22     1    1
    15     1     2   am
    16     2     3    2
    17     2     4   am
    18     4     7    1
    19     7     8   ar
    20     8     9   ar
    21     9    10   ar
    22    10    13    1
    23    13    14   ar
    24    14    15   ar
    25    15    16   ar
    26    16    17   ar
    27    10    11   ar
    28    11    12   ar
    29    27    28   ar
    30    28    29   ar
    31    29    24   ar
    32    22    18   ar
    33    12     7   ar
    34    17    13   ar
    35     1     5    1
    36     4     6    1
@<TRIPOS>MOLECULE
*****
 33 36 0 0 0
SMALL
GASTEIGER

@<TRIPOS>ATOM
      1 N          61.6918   88.0266   12.1698 N.am    1  UNL1       -0.2533
      2 C          62.8920   88.7426   12.7145 C.2     1  UNL1        0.3092
      3 O          64.2368   88.0783   12.6901 O.2     1  UNL1       -0.2521
      4 N          62.7477   90.1229   13.2837 N.am    1  UNL1       -0.2680
      5 H          60.8093   88.4627   12.1858 H       1  UNL1        0.1578
      6 H          61.8652   90.5589   13.2997 H       1  UNL1        0.1564
      7 C          63.9480   90.8388   13.8284 C.ar    1  UNL1        0.0517
      8 C          64.1390   90.9620   15.3111 C.ar    1  UNL1        0.0162
      9 C          65.3393   91.6779   15.8558 C.ar    1  UNL1        0.0188
     10 C          66.3486   92.2707   14.9179 C.ar    1  UNL1        0.0656
     11 C          66.1577   92.1475   13.4352 C.ar    1  UNL1        0.0188
     12 C          64.9574   91.4316   12.8905 C.ar    1  UNL1        0.0162
     13 N          67.5489   92.9866   15.4626 N.ar    1  UNL1       -0.2864
     14 C          67.8687   94.4402   15.2756 C.ar    1  UNL1        0.1022
     15 C          69.1576   94.7266   15.9874 C.ar    1  UNL1        0.1196
     16 N          69.6344   93.4501   16.6143 N.ar    1  UNL1       -0.2220
     17 C          68.6402   92.3747   16.2900 C.ar    1  UNL1        0.1828
     18 N          61.3784   86.1999   10.2437 N.ar    1  UNL1       -0.2162
     19 N          61.7229   84.7478   10.0929 N.ar    1  UNL1       -0.1683
     20 C          62.3936   84.2968   11.3566 C.ar    1  UNL1        0.0810
     21 C          62.4636   85.4702   12.2884 C.ar    1  UNL1        0.0509
     22 C          61.8362   86.6463   11.6006 C.ar    1  UNL1        0.1380
     23 C          58.6487   89.6215    6.1399 C.3     1  UNL1        0.0310
     24 C          59.3311   88.7661    7.1659 C.ar    1  UNL1       -0.0218
     25 C          60.1284   89.4045    8.2644 C.ar    1  UNL1       -0.0027
     26 C          60.8108   88.5491    9.2904 C.ar    1  UNL1        0.0189
     27 C          60.6960   87.0553    9.2178 C.ar    1  UNL1        0.0842
     28 C          59.8988   86.4169    8.1192 C.ar    1  UNL1        0.0189
     29 C          59.2163   87.2723    7.0933 C.ar    1  UNL1       -0.0027
     30 C          62.9046   82.9151   11.6389 C.3     1  UNL1        0.0372
     31 C          62.2856   82.9651   13.0043 C.3     1  UNL1        0.0060
     32 C          63.5235   82.8650   10.2735 C.3     1  UNL1        0.0060
     33 C          63.4155   81.5333   11.9212 C.3     1  UNL1        0.0060
@<TRIPOS>BOND
     1    23    24    1
     2    24    25   ar
     3    25    26   ar
     4    26    27   ar
     5    27    18    1
     6    18    19   ar
     7    19    20   ar
     8    20    30    1
     9    30    31    1
    10    30    32    1
    11    30    33    1
    12    20    21   ar
    13    21    22   ar
    14    22     1    1
    15     1     2   am
    16     2     3    2
    17     2     4   am
    18     4     7    1
    19     7     8   ar
    20     8     9   ar
    21     9    10   ar
    22    10    13    1
    23    13    14   ar
    24    14    15   ar
    25    15    16   ar
    26    16    17   ar
    27    10    11   ar
    28    11    12   ar
    29    27    28   ar
    30    28    29   ar
    31    29    24   ar
    32    22    18   ar
    33    12     7   ar
    34    17    13   ar
    35     1     5    1
    36     4     6    1
@<TRIPOS>MOLECULE
*****
 33 36 0 0 0
SMALL
GASTEIGER

@<TRIPOS>ATOM
      1 N          62.0547   85.7316   11.9814 N.am    1  UNL1       -0.2533
      2 C          62.9517   86.8095   12.5136 C.2     1  UNL1        0.3092
      3 O          64.1105   86.4528   13.3969 O.2     1  UNL1       -0.2521
      4 N          62.6902   88.2442   12.1626 N.am    1  UNL1       -0.2680
      5 H          61.2942   85.9658   11.4017 H       1  UNL1        0.1578
      6 H          61.9297   88.4784   11.5829 H       1  UNL1        0.1564
      7 C          63.5873   89.3221   12.6949 C.ar    1  UNL1        0.0517
      8 C          64.2366   89.1624   14.0376 C.ar    1  UNL1        0.0162
      9 C          65.1337   90.2403   14.5698 C.ar    1  UNL1        0.0188
     10 C          65.3816   91.4779   13.7595 C.ar    1  UNL1        0.0656
     11 C          64.7322   91.6377   12.4168 C.ar    1  UNL1        0.0188
     12 C          63.8351   90.5598   11.8845 C.ar    1  UNL1        0.0162
     13 N          66.2787   92.5558   14.2917 N.ar    1  UNL1       -0.2864
     14 C          67.1237   92.4690   15.5281 C.ar    1  UNL1        0.1022
     15 C          67.8555   93.7693   15.6815 C.ar    1  UNL1        0.1196
     16 N          67.4629   94.6598   14.5401 N.ar    1  UNL1       -0.2220
     17 C          66.4883   93.9098   13.6811 C.ar    1  UNL1        0.1828
     18 N          62.5725   83.7586   13.7088 N.ar    1  UNL1       -0.2162
     19 N          62.7821   82.2776   13.5956 N.ar    1  UNL1       -0.1683
     20 C          62.6553   81.9007   12.1493 C.ar    1  UNL1        0.0810
     21 C          62.3674   83.1487   11.3685 C.ar    1  UNL1        0.0509
     22 C          62.3162   84.2969   12.3324 C.ar    1  UNL1        0.1380
     23 C          62.7316   86.9659   18.7771 C.3     1  UNL1        0.0310
     24 C          62.6918   86.1640   17.5100 C.ar    1  UNL1       -0.0218
     25 C          61.3853   85.9296   16.8115 C.ar    1  UNL1       -0.0027
     26 C          61.3455   85.1278   15.5444 C.ar    1  UNL1        0.0189
     27 C          62.6123   84.5604   14.9759 C.ar    1  UNL1        0.0842
     28 C          63.9188   84.7948   15.6744 C.ar    1  UNL1        0.0189
     29 C          63.9586   85.5966   16.9415 C.ar    1  UNL1       -0.0027
     30 C          62.7924   80.5184   11.5831 C.3     1  UNL1        0.0372
     31 C          62.4072   79.9364   12.9109 C.3     1  UNL1        0.0060
     32 C          63.1775   81.1004   10.2554 C.3     1  UNL1        0.0060
     33 C          62.9294   79.1361   11.0170 C.3     1  UNL1        0.0060
@<TRIPOS>BOND
     1    23    24    1
     2    24    25   ar
     3    25    26   ar
     4    26    27   ar
     5    27    18    1
     6    18    19   ar
     7    19    20   ar
     8    20    30    1
     9    30    31    1
    10    30    32    1
    11    30    33    1
    12    20    21   ar
    13    21    22   ar
    14    22     1    1
    15     1     2   am
    16     2     3    2
    17     2     4   am
    18     4     7    1
    19     7     8   ar
    20     8     9   ar
    21     9    10   ar
    22    10    13    1
    23    13    14   ar
    24    14    15   ar
    25    15    16   ar
    26    16    17   ar
    27    10    11   ar
    28    11    12   ar
    29    27    28   ar
    30    28    29   ar
    31    29    24   ar
    32    22    18   ar
    33    12     7   ar
    34    17    13   ar
    35     1     5    1
    36     4     6    1
@<TRIPOS>MOLECULE
*****
 33 36 0 0 0
SMALL
GASTEIGER

@<TRIPOS>ATOM
      1 N          61.4369   85.7679   11.8336 N.am    1  UNL1       -0.2533
      2 C          62.3280   86.9743   11.8498 C.2     1  UNL1        0.3092
      3 O          63.7892   86.8235   12.1538 O.2     1  UNL1       -0.2521
      4 N          61.7582   88.3317   11.5620 N.am    1  UNL1       -0.2680
      5 H          60.4779   85.8670   11.6340 H       1  UNL1        0.1578
      6 H          60.7992   88.4308   11.3624 H       1  UNL1        0.1564
      7 C          62.6494   89.5381   11.5782 C.ar    1  UNL1        0.0517
      8 C          62.8160   90.3643   10.3374 C.ar    1  UNL1        0.0162
      9 C          63.7072   91.5707   10.3536 C.ar    1  UNL1        0.0188
     10 C          64.4319   91.9510   11.6106 C.ar    1  UNL1        0.0656
     11 C          64.2653   91.1248   12.8515 C.ar    1  UNL1        0.0188
     12 C          63.3741   89.9184   12.8352 C.ar    1  UNL1        0.0162
     13 N          65.3231   93.1574   11.6269 N.ar    1  UNL1       -0.2864
     14 C          65.5947   94.0687   10.4667 C.ar    1  UNL1        0.1022
     15 C          66.5387   95.1388   10.9289 C.ar    1  UNL1        0.1196
     16 N          66.8505   94.8890   12.3747 N.ar    1  UNL1       -0.2220
     17 C          66.0993   93.6644   12.8061 C.ar    1  UNL1        0.1828
     18 N          62.5823   83.9552   13.4296 N.ar    1  UNL1       -0.2162
     19 N          63.0323   82.5335   13.2681 N.ar    1  UNL1       -0.1683
     20 C          62.7350   82.1101   11.8601 C.ar    1  UNL1        0.0810
     21 C          62.1011   83.2703   11.1514 C.ar    1  UNL1        0.0509
     22 C          62.0068   84.4106   12.1213 C.ar    1  UNL1        0.1380
     23 C          63.0090   87.2434   18.4301 C.3     1  UNL1        0.0310
     24 C          62.9023   86.4213   17.1800 C.ar    1  UNL1       -0.0218
     25 C          61.6344   85.6800   16.8758 C.ar    1  UNL1       -0.0027
     26 C          61.5277   84.8580   15.6256 C.ar    1  UNL1        0.0189
     27 C          62.6889   84.7772   14.6797 C.ar    1  UNL1        0.0842
     28 C          63.9569   85.5186   14.9839 C.ar    1  UNL1        0.0189
     29 C          64.0636   86.3406   16.2341 C.ar    1  UNL1       -0.0027
     30 C          63.0212   80.7632   11.2654 C.3     1  UNL1        0.0372
     31 C          62.5251   80.1045   12.5184 C.3     1  UNL1        0.0060
     32 C          63.5173   81.4219   10.0124 C.3     1  UNL1        0.0060
     33 C          63.3075   79.4162   10.6706 C.3     1  UNL1        0.0060
@<TRIPOS>BOND
     1    23    24    1
     2    24    25   ar
     3    25    26   ar
     4    26    27   ar
     5    27    18    1
     6    18    19   ar
     7    19    20   ar
     8    20    30    1
     9    30    31    1
    10    30    32    1
    11    30    33    1
    12    20    21   ar
    13    21    22   ar
    14    22     1    1
    15     1     2   am
    16     2     3    2
    17     2     4   am
    18     4     7    1
    19     7     8   ar
    20     8     9   ar
    21     9    10   ar
    22    10    13    1
    23    13    14   ar
    24    14    15   ar
    25    15    16   ar
    26    16    17   ar
    27    10    11   ar
    28    11    12   ar
    29    27    28   ar
    30    28    29   ar
    31    29    24   ar
    32    22    18   ar
    33    12     7   ar
    34    17    13   ar
    35     1     5    1
    36     4     6    1
@<TRIPOS>MOLECULE
*****
 33 36 0 0 0
SMALL
GASTEIGER

@<TRIPOS>ATOM
      1 N          62.7421   90.8844   13.4504 N.am    1  UNL1       -0.2533
      2 C          62.7061   89.8558   12.3593 C.2     1  UNL1        0.3092
      3 O          63.9455   89.0843   12.0146 O.2     1  UNL1       -0.2521
      4 N          61.4307   89.5986   11.6128 N.am    1  UNL1       -0.2680
      5 H          61.9286   91.3907   13.6766 H       1  UNL1        0.1578
      6 H          60.6172   90.1049   11.8390 H       1  UNL1        0.1564
      7 C          61.3947   88.5699   10.5217 C.ar    1  UNL1        0.0517
      8 C          60.5357   88.7896    9.3118 C.ar    1  UNL1        0.0162
      9 C          60.4997   87.7609    8.2207 C.ar    1  UNL1        0.0188
     10 C          61.3228   86.5126    8.3393 C.ar    1  UNL1        0.0656
     11 C          62.1818   86.2929    9.5492 C.ar    1  UNL1        0.0188
     12 C          62.2178   87.3215   10.6403 C.ar    1  UNL1        0.0162
     13 N          61.2868   85.4839    7.2482 N.ar    1  UNL1       -0.2864
     14 C          62.4788   84.8501    6.5944 C.ar    1  UNL1        0.1022
     15 C          61.9812   83.8829    5.5614 C.ar    1  UNL1        0.1196
     16 N          60.4817   83.9190    5.5769 N.ar    1  UNL1       -0.2220
     17 C          60.0525   84.9085    6.6194 C.ar    1  UNL1        0.1828
     18 N          64.6607   90.2176   15.1880 N.ar    1  UNL1       -0.2162
     19 N          65.9143   90.8730   15.6870 N.ar    1  UNL1       -0.1683
     20 C          66.0458   92.2021   15.0043 C.ar    1  UNL1        0.0810
     21 C          64.8735   92.3682   14.0833 C.ar    1  UNL1        0.0509
     22 C          64.0175   91.1416   14.1969 C.ar    1  UNL1        0.1380
     23 C          62.5840   84.8432   16.8625 C.3     1  UNL1        0.0310
     24 C          63.1032   86.1868   16.4439 C.ar    1  UNL1       -0.0218
     25 C          62.7115   87.4146   17.2113 C.ar    1  UNL1       -0.0027
     26 C          63.2306   88.7582   16.7927 C.ar    1  UNL1        0.0189
     27 C          64.1415   88.8740   15.6066 C.ar    1  UNL1        0.0842
     28 C          64.5332   87.6462   14.8392 C.ar    1  UNL1        0.0189
     29 C          64.0140   86.3026   15.2578 C.ar    1  UNL1       -0.0027
     30 C          67.1549   93.1915   15.2069 C.3     1  UNL1        0.0372
     31 C          67.6652   92.3827   16.3625 C.3     1  UNL1        0.0060
     32 C          66.6446   94.0002   14.0513 C.3     1  UNL1        0.0060
     33 C          68.2640   94.1808   15.4096 C.3     1  UNL1        0.0060
@<TRIPOS>BOND
     1    23    24    1
     2    24    25   ar
     3    25    26   ar
     4    26    27   ar
     5    27    18    1
     6    18    19   ar
     7    19    20   ar
     8    20    30    1
     9    30    31    1
    10    30    32    1
    11    30    33    1
    12    20    21   ar
    13    21    22   ar
    14    22     1    1
    15     1     2   am
    16     2     3    2
    17     2     4   am
    18     4     7    1
    19     7     8   ar
    20     8     9   ar
    21     9    10   ar
    22    10    13    1
    23    13    14   ar
    24    14    15   ar
    25    15    16   ar
    26    16    17   ar
    27    10    11   ar
    28    11    12   ar
    29    27    28   ar
    30    28    29   ar
    31    29    24   ar
    32    22    18   ar
    33    12     7   ar
    34    17    13   ar
    35     1     5    1
    36     4     6    1
@<TRIPOS>MOLECULE
*****
 33 36 0 0 0
SMALL
GASTEIGER

@<TRIPOS>ATOM
      1 N          61.2577   87.9153   11.5381 N.am    1  UNL1       -0.2533
      2 C          62.4344   88.6773   12.0714 C.2     1  UNL1        0.3092
      3 O          63.8200   88.3396   11.6064 O.2     1  UNL1       -0.2521
      4 N          62.2257   89.7773   13.0697 N.am    1  UNL1       -0.2680
      5 H          60.3483   88.1370   11.8433 H       1  UNL1        0.1578
      6 H          61.3163   89.9990   13.3750 H       1  UNL1        0.1564
      7 C          63.4025   90.5393   13.6030 C.ar    1  UNL1        0.0517
      8 C          63.7289   90.4877   15.0662 C.ar    1  UNL1        0.0162
      9 C          64.9057   91.2498   15.5994 C.ar    1  UNL1        0.0188
     10 C          65.7561   92.0635   14.6696 C.ar    1  UNL1        0.0656
     11 C          65.4297   92.1151   13.2065 C.ar    1  UNL1        0.0188
     12 C          64.2529   91.3530   12.6732 C.ar    1  UNL1        0.0162
     13 N          66.9329   92.8256   15.2029 N.ar    1  UNL1       -0.2864
     14 C          67.9536   92.3068   16.1720 C.ar    1  UNL1        0.1022
     15 C          68.9471   93.4008   16.4287 C.ar    1  UNL1        0.1196
     16 N          68.5405   94.5958   15.6183 N.ar    1  UNL1       -0.2220
     17 C          67.2956   94.2402   14.8607 C.ar    1  UNL1        0.1828
     18 N          62.0868   85.4783   10.8179 N.ar    1  UNL1       -0.2162
     19 N          62.0951   84.6960    9.5381 N.ar    1  UNL1       -0.1683
     20 C          61.4798   85.5496    8.4690 C.ar    1  UNL1        0.0810
     21 C          61.0912   86.8594    9.0881 C.ar    1  UNL1        0.0509
     22 C          61.4663   86.8153   10.5398 C.ar    1  UNL1        0.1380
     23 C          64.1694   83.5906   16.1188 C.3     1  UNL1        0.0310
     24 C          63.6488   84.0625   14.7936 C.ar    1  UNL1       -0.0218
     25 C          63.9261   85.4633   14.3345 C.ar    1  UNL1       -0.0027
     26 C          63.4054   85.9352   13.0093 C.ar    1  UNL1        0.0189
     27 C          62.6074   85.0064   12.1431 C.ar    1  UNL1        0.0842
     28 C          62.3301   83.6055   12.6022 C.ar    1  UNL1        0.0189
     29 C          62.8508   83.1336   13.9274 C.ar    1  UNL1       -0.0027
     30 C          61.2870   85.1615    7.0330 C.3     1  UNL1        0.0372
     31 C          62.6878   84.6268    6.9894 C.3     1  UNL1        0.0060
     32 C          59.8862   85.6961    7.0766 C.3     1  UNL1        0.0060
     33 C          61.0942   84.7733    5.5970 C.3     1  UNL1        0.0060
@<TRIPOS>BOND
     1    23    24    1
     2    24    25   ar
     3    25    26   ar
     4    26    27   ar
     5    27    18    1
     6    18    19   ar
     7    19    20   ar
     8    20    30    1
     9    30    31    1
    10    30    32    1
    11    30    33    1
    12    20    21   ar
    13    21    22   ar
    14    22     1    1
    15     1     2   am
    16     2     3    2
    17     2     4   am
    18     4     7    1
    19     7     8   ar
    20     8     9   ar
    21     9    10   ar
    22    10    13    1
    23    13    14   ar
    24    14    15   ar
    25    15    16   ar
    26    16    17   ar
    27    10    11   ar
    28    11    12   ar
    29    27    28   ar
    30    28    29   ar
    31    29    24   ar
    32    22    18   ar
    33    12     7   ar
    34    17    13   ar
    35     1     5    1
    36     4     6    1
