@<TRIPOS>MOLECULE
*****
 31 33 0 0 0
SMALL
GASTEIGER

@<TRIPOS>ATOM
      1 N          60.6967   88.6745    9.3139 N.3     1  UNL1       -0.2665
      2 C          60.6286   89.7797   10.3256 C.3     1  UNL1        0.0992
      3 C          64.4114   91.3964   12.1497 C.ar    1  UNL1        0.0001
      4 C          64.0589   91.7338   10.7313 C.ar    1  UNL1       -0.0003
      5 C          62.7979   91.1950   10.1232 C.ar    1  UNL1       -0.0029
      6 C          61.8895   90.3186   10.9336 C.ar    1  UNL1       -0.0061
      7 C          62.2420   89.9812   12.3521 C.ar    1  UNL1       -0.0029
      8 C          63.5029   90.5201   12.9601 C.ar    1  UNL1       -0.0003
      9 C          66.0723   91.5234   14.1434 C.2     1  UNL1        0.0598
     10 C          65.6723   91.9353   12.7577 C.2     1  UNL1        0.0047
     11 O          67.3195   92.6031   16.1505 O.2     1  UNL1       -0.2681
     12 C          67.3332   92.0622   14.7515 C.2     1  UNL1        0.2679
     13 N          68.6078   92.0603   13.9607 N.am    1  UNL1       -0.1934
     14 O          69.8686   92.5991   14.5688 O.3     1  UNL1       -0.2949
     15 H          68.6168   91.7053   13.0424 H       1  UNL1        0.1825
     16 H          69.6869   92.9064   15.4707 H       1  UNL1        0.2414
     17 C          59.7355   88.6512    8.1626 C.3     1  UNL1        0.1045
     18 C          59.4029   87.3526    7.4894 C.3     1  UNL1        0.1544
     19 O          58.1905   86.5774    7.9125 O.3     1  UNL1       -0.3805
     20 H          58.3091   86.2628    8.8223 H       1  UNL1        0.2105
     21 C          61.7262   87.5925    9.4534 C.3     1  UNL1        0.0772
     22 C          61.5309   86.4966   10.4590 C.3     1  UNL1        0.0453
     23 C          62.4447   85.3070   10.4588 C.2     1  UNL1       -0.0005
     24 C          63.1126   84.7085    9.2564 C.2     1  UNL1        0.0942
     25 N          63.9315   83.5387    9.7155 N.2     1  UNL1       -0.2482
     26 C          63.7698   83.4142   11.2016 C.2     1  UNL1        0.0631
     27 C          64.3406   82.4469   12.1958 C.3     1  UNL1        0.0717
     28 C          63.9924   82.5725   13.6494 C.2     1  UNL1       -0.0198
     29 C          63.0735   83.6655   14.1088 C.2     1  UNL1       -0.0042
     30 C          62.5027   84.6327   13.1145 C.2     1  UNL1        0.0006
     31 C          62.8509   84.5071   11.6610 C.2     1  UNL1        0.0114
@<TRIPOS>BOND
     1    11    12    2
     2    12     9    1
     3     9    10    2
     4    10     3    1
     5     3     4   ar
     6     4     5   ar
     7     5     6   ar
     8     6     2    1
     9     2     1    1
    10     1    17    1
    11    17    18    1
    12    18    19    1
    13     1    21    1
    14    21    22    1
    15    22    23    1
    16    23    24    2
    17    24    25    1
    18    25    26    2
    19    26    27    1
    20    27    28    1
    21    28    29    2
    22    29    30    1
    23    30    31    2
    24     6     7   ar
    25     7     8   ar
    26    12    13   am
    27    13    14    1
    28     8     3   ar
    29    31    23    1
    30    31    26    1
    31    19    20    1
    32    13    15    1
    33    14    16    1
@<TRIPOS>MOLECULE
*****
 31 33 0 0 0
SMALL
GASTEIGER

@<TRIPOS>ATOM
      1 N          61.2776   86.9098    9.2553 N.3     1  UNL1       -0.2665
      2 C          60.8286   87.9730   10.2133 C.3     1  UNL1        0.0992
      3 C          63.7881   90.9707   11.7962 C.ar    1  UNL1        0.0001
      4 C          63.1538   91.1801   10.4531 C.ar    1  UNL1       -0.0003
      5 C          62.1673   90.1809    9.9254 C.ar    1  UNL1       -0.0029
      6 C          61.8151   88.9722   10.7409 C.ar    1  UNL1       -0.0061
      7 C          62.4493   88.7628   12.0840 C.ar    1  UNL1       -0.0029
      8 C          63.4358   89.7620   12.6116 C.ar    1  UNL1       -0.0003
      9 C          65.7394   91.5739   13.4018 C.2     1  UNL1        0.0598
     10 C          64.7746   91.9699   12.3238 C.2     1  UNL1        0.0047
     11 O          66.2981   93.9886   14.1809 O.2     1  UNL1       -0.2681
     12 C          66.7260   92.5731   13.9295 C.2     1  UNL1        0.2679
     13 N          68.1403   92.1568   14.2057 N.am    1  UNL1       -0.1934
     14 O          69.1268   93.1561   14.7334 O.3     1  UNL1       -0.2949
     15 H          68.4211   91.2278   14.0407 H       1  UNL1        0.1825
     16 H          68.6909   94.0163   14.8384 H       1  UNL1        0.2414
     17 C          60.3619   86.4531    8.1585 C.3     1  UNL1        0.1045
     18 C          58.9963   87.0581    8.0210 C.3     1  UNL1        0.1544
     19 O          58.7819   88.2249    7.1030 O.3     1  UNL1       -0.3805
     20 H          59.2673   88.9944    7.4394 H       1  UNL1        0.2105
     21 C          62.6425   86.3032    9.3941 C.3     1  UNL1        0.0772
     22 C          62.7882   84.8788    9.8414 C.3     1  UNL1        0.0453
     23 C          62.7165   84.5398   11.3008 C.2     1  UNL1       -0.0005
     24 C          62.5931   85.5209   12.4288 C.2     1  UNL1        0.0942
     25 N          62.5558   84.7477   13.7136 N.2     1  UNL1       -0.2482
     26 C          62.6562   83.2888   13.3797 C.2     1  UNL1        0.0631
     27 C          62.6701   82.0607   14.2409 C.3     1  UNL1        0.0717
     28 C          62.7832   80.7042   13.6108 C.2     1  UNL1       -0.0198
     29 C          62.8825   80.5757   12.1196 C.2     1  UNL1       -0.0042
     30 C          62.8687   81.8038   11.2585 C.2     1  UNL1        0.0006
     31 C          62.7555   83.1603   11.8885 C.2     1  UNL1        0.0114
@<TRIPOS>BOND
     1    11    12    2
     2    12     9    1
     3     9    10    2
     4    10     3    1
     5     3     4   ar
     6     4     5   ar
     7     5     6   ar
     8     6     2    1
     9     2     1    1
    10     1    17    1
    11    17    18    1
    12    18    19    1
    13     1    21    1
    14    21    22    1
    15    22    23    1
    16    23    24    2
    17    24    25    1
    18    25    26    2
    19    26    27    1
    20    27    28    1
    21    28    29    2
    22    29    30    1
    23    30    31    2
    24     6     7   ar
    25     7     8   ar
    26    12    13   am
    27    13    14    1
    28     8     3   ar
    29    31    23    1
    30    31    26    1
    31    19    20    1
    32    13    15    1
    33    14    16    1
@<TRIPOS>MOLECULE
*****
 31 33 0 0 0
SMALL
GASTEIGER

@<TRIPOS>ATOM
      1 N          63.9728   87.5954   15.6145 N.3     1  UNL1       -0.2665
      2 C          64.4610   88.5293   14.5471 C.3     1  UNL1        0.0992
      3 C          62.0478   89.1150   10.7942 C.ar    1  UNL1        0.0001
      4 C          62.4858   90.3037   11.5975 C.ar    1  UNL1       -0.0003
      5 C          63.2902   90.1085   12.8485 C.ar    1  UNL1       -0.0029
      6 C          63.6566   88.7246   13.2962 C.ar    1  UNL1       -0.0061
      7 C          63.2186   87.5358   12.4929 C.ar    1  UNL1       -0.0029
      8 C          62.4143   87.7311   11.2419 C.ar    1  UNL1       -0.0003
      9 C          60.2602   88.2625    9.1128 C.2     1  UNL1        0.0598
     10 C          61.2434   89.3103    9.5433 C.2     1  UNL1        0.0047
     11 O          58.5063   87.3894    7.4065 O.2     1  UNL1       -0.2681
     12 C          59.4558   88.4577    7.8618 C.2     1  UNL1        0.2679
     13 N          59.6007   89.7210    7.0663 N.am    1  UNL1       -0.1934
     14 O          58.7962   89.9161    5.8154 O.3     1  UNL1       -0.2949
     15 H          60.2239   90.4222    7.3652 H       1  UNL1        0.1825
     16 H          58.2376   89.1374    5.6655 H       1  UNL1        0.2414
     17 C          63.0981   88.1102   16.7189 C.3     1  UNL1        0.1045
     18 C          62.4489   87.1500   17.6710 C.3     1  UNL1        0.1544
     19 O          61.4510   86.1511   17.1648 O.3     1  UNL1       -0.3805
     20 H          60.6636   86.6161   16.8413 H       1  UNL1        0.2105
     21 C          64.3594   86.1465   15.5774 C.3     1  UNL1        0.0772
     22 C          64.4305   85.4226   14.2655 C.3     1  UNL1        0.0453
     23 C          63.7947   84.0719   14.1188 C.2     1  UNL1       -0.0005
     24 C          63.1051   83.2995   15.2040 C.2     1  UNL1        0.0942
     25 N          62.6211   82.0068   14.6169 N.2     1  UNL1       -0.2482
     26 C          63.0116   81.9803   13.1689 C.2     1  UNL1        0.0631
     27 C          62.8004   80.9589   12.0909 C.3     1  UNL1        0.0717
     28 C          63.3145   81.2138   10.7050 C.2     1  UNL1       -0.0198
     29 C          64.0398   82.4902   10.3972 C.2     1  UNL1       -0.0042
     30 C          64.2510   83.5116   11.4751 C.2     1  UNL1        0.0006
     31 C          63.7369   83.2566   12.8610 C.2     1  UNL1        0.0114
@<TRIPOS>BOND
     1    11    12    2
     2    12     9    1
     3     9    10    2
     4    10     3    1
     5     3     4   ar
     6     4     5   ar
     7     5     6   ar
     8     6     2    1
     9     2     1    1
    10     1    17    1
    11    17    18    1
    12    18    19    1
    13     1    21    1
    14    21    22    1
    15    22    23    1
    16    23    24    2
    17    24    25    1
    18    25    26    2
    19    26    27    1
    20    27    28    1
    21    28    29    2
    22    29    30    1
    23    30    31    2
    24     6     7   ar
    25     7     8   ar
    26    12    13   am
    27    13    14    1
    28     8     3   ar
    29    31    23    1
    30    31    26    1
    31    19    20    1
    32    13    15    1
    33    14    16    1
@<TRIPOS>MOLECULE
*****
 31 33 0 0 0
SMALL
GASTEIGER

@<TRIPOS>ATOM
      1 N          60.6943   87.7850    9.8534 N.3     1  UNL1       -0.2665
      2 C          60.5351   89.1682   10.4113 C.3     1  UNL1        0.0992
      3 C          64.1163   91.3762   12.0081 C.ar    1  UNL1        0.0001
      4 C          63.7279   91.5202   10.5664 C.ar    1  UNL1       -0.0003
      5 C          62.5341   90.7843   10.0341 C.ar    1  UNL1       -0.0029
      6 C          61.7288   89.9042   10.9435 C.ar    1  UNL1       -0.0061
      7 C          62.1173   89.7602   12.3852 C.ar    1  UNL1       -0.0029
      8 C          63.3110   90.4962   12.9175 C.ar    1  UNL1       -0.0003
      9 C          65.9697   91.6544   13.8073 C.2     1  UNL1        0.0598
     10 C          65.3101   92.1122   12.5403 C.2     1  UNL1        0.0047
     11 O          68.5188   92.1526   13.7424 O.2     1  UNL1       -0.2681
     12 C          67.1635   92.3904   14.3396 C.2     1  UNL1        0.2679
     13 N          67.0021   93.3641   15.4691 N.am    1  UNL1       -0.1934
     14 O          68.1959   94.1001   16.0013 O.3     1  UNL1       -0.2949
     15 H          66.1126   93.5203   15.8610 H       1  UNL1        0.1825
     16 H          68.9871   93.8322   15.5082 H       1  UNL1        0.2414
     17 C          60.5437   87.5485    8.3799 C.3     1  UNL1        0.1045
     18 C          59.2046   87.7193    7.7259 C.3     1  UNL1        0.1544
     19 O          58.1906   86.6159    7.7938 O.3     1  UNL1       -0.3805
     20 H          58.5158   85.8472    7.2995 H       1  UNL1        0.2105
     21 C          61.0043   86.6381   10.7692 C.3     1  UNL1        0.0772
     22 C          62.2575   85.8378   10.5714 C.3     1  UNL1        0.0453
     23 C          62.7165   84.8872   11.6371 C.2     1  UNL1       -0.0005
     24 C          62.6106   83.3917   11.5898 C.2     1  UNL1        0.0942
     25 N          63.1906   82.8456   12.8607 N.2     1  UNL1       -0.2482
     26 C          63.6550   84.0036   13.6935 C.2     1  UNL1        0.0631
     27 C          64.3067   84.0720   15.0428 C.3     1  UNL1        0.0717
     28 C          64.6654   85.4023   15.6357 C.2     1  UNL1       -0.0198
     29 C          64.3724   86.6641   14.8795 C.2     1  UNL1       -0.0042
     30 C          63.7206   86.5957   13.5303 C.2     1  UNL1        0.0006
     31 C          63.3619   85.2654   12.9373 C.2     1  UNL1        0.0114
@<TRIPOS>BOND
     1    11    12    2
     2    12     9    1
     3     9    10    2
     4    10     3    1
     5     3     4   ar
     6     4     5   ar
     7     5     6   ar
     8     6     2    1
     9     2     1    1
    10     1    17    1
    11    17    18    1
    12    18    19    1
    13     1    21    1
    14    21    22    1
    15    22    23    1
    16    23    24    2
    17    24    25    1
    18    25    26    2
    19    26    27    1
    20    27    28    1
    21    28    29    2
    22    29    30    1
    23    30    31    2
    24     6     7   ar
    25     7     8   ar
    26    12    13   am
    27    13    14    1
    28     8     3   ar
    29    31    23    1
    30    31    26    1
    31    19    20    1
    32    13    15    1
    33    14    16    1
@<TRIPOS>MOLECULE
*****
 31 33 0 0 0
SMALL
GASTEIGER

@<TRIPOS>ATOM
      1 N          60.4234   89.2728   10.4107 N.3     1  UNL1       -0.2665
      2 C          61.6747   89.9263    9.9039 C.3     1  UNL1        0.0992
      3 C          64.7405   91.4748   12.8114 C.ar    1  UNL1        0.0001
      4 C          64.6518   92.0593   11.4328 C.ar    1  UNL1       -0.0003
      5 C          63.6299   91.5431   10.4636 C.ar    1  UNL1       -0.0029
      6 C          62.6967   90.4425   10.8730 C.ar    1  UNL1       -0.0061
      7 C          62.7853   89.8580   12.2517 C.ar    1  UNL1       -0.0029
      8 C          63.8072   90.3742   13.2208 C.ar    1  UNL1       -0.0003
      9 C          67.1609   92.2720   13.3169 C.2     1  UNL1        0.0598
     10 C          65.7624   91.9910   13.7806 C.2     1  UNL1        0.0047
     11 O          69.6286   92.4263   14.1150 O.2     1  UNL1       -0.2681
     12 C          68.1829   92.7882   14.2860 C.2     1  UNL1        0.2679
     13 N          67.7594   93.6662   15.4260 N.am    1  UNL1       -0.1934
     14 O          68.7814   94.1823   16.3951 O.3     1  UNL1       -0.2949
     15 H          66.8106   93.9037   15.5383 H       1  UNL1        0.1825
     16 H          69.6597   93.8572   16.1425 H       1  UNL1        0.2414
     17 C          59.4242   90.0719   11.1938 C.3     1  UNL1        0.1045
     18 C          59.1138   89.7004   12.6135 C.3     1  UNL1        0.1544
     19 O          58.1499   88.5884   12.9042 O.3     1  UNL1       -0.3805
     20 H          57.2629   88.8430   12.6054 H       1  UNL1        0.2105
     21 C          60.1712   87.8202   10.1346 C.3     1  UNL1        0.0772
     22 C          60.8820   86.7700   10.9359 C.3     1  UNL1        0.0453
     23 C          61.8715   85.8603   10.2700 C.2     1  UNL1       -0.0005
     24 C          62.2623   85.8914    8.8222 C.2     1  UNL1        0.0942
     25 N          63.2762   84.8101    8.5925 N.2     1  UNL1       -0.2482
     26 C          63.5120   84.1107    9.8984 C.2     1  UNL1        0.0631
     27 C          64.4051   82.9667   10.2773 C.3     1  UNL1        0.0717
     28 C          64.4301   82.4719   11.6931 C.2     1  UNL1       -0.0198
     29 C          63.5619   83.1209   12.7299 C.2     1  UNL1       -0.0042
     30 C          62.6688   84.2649   12.3509 C.2     1  UNL1        0.0006
     31 C          62.6438   84.7598   10.9352 C.2     1  UNL1        0.0114
@<TRIPOS>BOND
     1    11    12    2
     2    12     9    1
     3     9    10    2
     4    10     3    1
     5     3     4   ar
     6     4     5   ar
     7     5     6   ar
     8     6     2    1
     9     2     1    1
    10     1    17    1
    11    17    18    1
    12    18    19    1
    13     1    21    1
    14    21    22    1
    15    22    23    1
    16    23    24    2
    17    24    25    1
    18    25    26    2
    19    26    27    1
    20    27    28    1
    21    28    29    2
    22    29    30    1
    23    30    31    2
    24     6     7   ar
    25     7     8   ar
    26    12    13   am
    27    13    14    1
    28     8     3   ar
    29    31    23    1
    30    31    26    1
    31    19    20    1
    32    13    15    1
    33    14    16    1
@<TRIPOS>MOLECULE
*****
 31 33 0 0 0
SMALL
GASTEIGER

@<TRIPOS>ATOM
      1 N          61.3397   88.0965   10.2893 N.3     1  UNL1       -0.2665
      2 C          61.7636   89.5106   10.0237 C.3     1  UNL1        0.0992
      3 C          64.7305   91.5191   12.7465 C.ar    1  UNL1        0.0001
      4 C          64.5232   92.0341   11.3530 C.ar    1  UNL1       -0.0003
      5 C          63.5342   91.3646   10.4454 C.ar    1  UNL1       -0.0029
      6 C          62.7526   90.1801   10.9313 C.ar    1  UNL1       -0.0061
      7 C          62.9600   89.6651   12.3248 C.ar    1  UNL1       -0.0029
      8 C          63.9489   90.3346   13.2324 C.ar    1  UNL1       -0.0003
      9 C          67.1904   92.0399   13.4005 C.2     1  UNL1        0.0598
     10 C          65.7195   92.1886   13.6541 C.2     1  UNL1        0.0047
     11 O          69.6481   92.4624   14.1291 O.2     1  UNL1       -0.2681
     12 C          68.1794   92.7094   14.3080 C.2     1  UNL1        0.2679
     13 N          67.6999   93.6257   15.3944 N.am    1  UNL1       -0.1934
     14 O          68.6890   94.2952   16.3019 O.3     1  UNL1       -0.2949
     15 H          66.7359   93.7878   15.5118 H       1  UNL1        0.1825
     16 H          69.5880   94.0300   16.0521 H       1  UNL1        0.2414
     17 C          60.0782   87.8226   11.0531 C.3     1  UNL1        0.1045
     18 C          59.4178   88.9228   11.8299 C.3     1  UNL1        0.1544
     19 O          58.5411   88.5921   13.0013 O.3     1  UNL1       -0.3805
     20 H          57.7541   88.1168   12.6921 H       1  UNL1        0.2105
     21 C          62.1775   86.9563    9.7912 C.3     1  UNL1        0.0772
     22 C          61.9711   85.5768   10.3431 C.3     1  UNL1        0.0453
     23 C          62.5726   85.2000   11.6645 C.2     1  UNL1       -0.0005
     24 C          63.0298   86.1528   12.7290 C.2     1  UNL1        0.0942
     25 N          63.5623   85.3458   13.8758 N.2     1  UNL1       -0.2482
     26 C          63.4343   83.8942   13.5201 C.2     1  UNL1        0.0631
     27 C          63.7957   82.6429   14.2641 C.3     1  UNL1        0.0717
     28 C          63.5454   81.3014   13.6414 C.2     1  UNL1       -0.0198
     29 C          62.9337   81.2113   12.2748 C.2     1  UNL1       -0.0042
     30 C          62.5723   82.4626   11.5308 C.2     1  UNL1        0.0006
     31 C          62.8226   83.8041   12.1535 C.2     1  UNL1        0.0114
@<TRIPOS>BOND
     1    11    12    2
     2    12     9    1
     3     9    10    2
     4    10     3    1
     5     3     4   ar
     6     4     5   ar
     7     5     6   ar
     8     6     2    1
     9     2     1    1
    10     1    17    1
    11    17    18    1
    12    18    19    1
    13     1    21    1
    14    21    22    1
    15    22    23    1
    16    23    24    2
    17    24    25    1
    18    25    26    2
    19    26    27    1
    20    27    28    1
    21    28    29    2
    22    29    30    1
    23    30    31    2
    24     6     7   ar
    25     7     8   ar
    26    12    13   am
    27    13    14    1
    28     8     3   ar
    29    31    23    1
    30    31    26    1
    31    19    20    1
    32    13    15    1
    33    14    16    1
@<TRIPOS>MOLECULE
*****
 31 33 0 0 0
SMALL
GASTEIGER

@<TRIPOS>ATOM
      1 N          61.5191   86.4043    9.7587 N.3     1  UNL1       -0.2665
      2 C          61.0679   87.4929   10.6867 C.3     1  UNL1        0.0992
      3 C          63.7016   91.0699   11.4074 C.ar    1  UNL1        0.0001
      4 C          63.6469   89.9630   12.4182 C.ar    1  UNL1       -0.0003
      5 C          62.7690   88.7706   12.1780 C.ar    1  UNL1       -0.0029
      6 C          61.9458   88.6852   10.9270 C.ar    1  UNL1       -0.0061
      7 C          62.0006   89.7922    9.9161 C.ar    1  UNL1       -0.0029
      8 C          62.8785   90.9845   10.1563 C.ar    1  UNL1       -0.0003
      9 C          65.2758   92.9250   10.4962 C.2     1  UNL1        0.0598
     10 C          64.5795   92.2622   11.6476 C.2     1  UNL1        0.0047
     11 O          67.6375   94.0065   10.5462 O.2     1  UNL1       -0.2681
     12 C          66.1537   94.1173   10.7363 C.2     1  UNL1        0.2679
     13 N          65.5480   95.4203   11.1666 N.am    1  UNL1       -0.1934
     14 O          66.4260   96.6126   11.4067 O.3     1  UNL1       -0.2949
     15 H          64.5741   95.4930   11.2914 H       1  UNL1        0.1825
     16 H          67.3508   96.3719   11.2401 H       1  UNL1        0.2414
     17 C          60.7119   86.0773    8.5375 C.3     1  UNL1        0.1045
     18 C          59.7085   87.0626    8.0157 C.3     1  UNL1        0.1544
     19 O          58.2669   86.6685    7.8876 O.3     1  UNL1       -0.3805
     20 H          58.1796   85.9759    7.2141 H       1  UNL1        0.2105
     21 C          62.7776   85.6425   10.0520 C.3     1  UNL1        0.0772
     22 C          62.7528   84.1435   10.1011 C.3     1  UNL1        0.0453
     23 C          63.1076   83.4287   11.3713 C.2     1  UNL1       -0.0005
     24 C          63.1597   81.9417   11.5611 C.2     1  UNL1        0.0942
     25 N          63.5569   81.6695   12.9817 N.2     1  UNL1       -0.2482
     26 C          63.7502   82.9882   13.6699 C.2     1  UNL1        0.0631
     27 C          64.1433   83.3395   15.0742 C.3     1  UNL1        0.0717
     28 C          64.2586   84.7780   15.4831 C.2     1  UNL1       -0.0198
     29 C          63.9809   85.8653   14.4878 C.2     1  UNL1       -0.0042
     30 C          63.5879   85.5140   13.0835 C.2     1  UNL1        0.0006
     31 C          63.4725   84.0755   12.6745 C.2     1  UNL1        0.0114
@<TRIPOS>BOND
     1    11    12    2
     2    12     9    1
     3     9    10    2
     4    10     3    1
     5     3     4   ar
     6     4     5   ar
     7     5     6   ar
     8     6     2    1
     9     2     1    1
    10     1    17    1
    11    17    18    1
    12    18    19    1
    13     1    21    1
    14    21    22    1
    15    22    23    1
    16    23    24    2
    17    24    25    1
    18    25    26    2
    19    26    27    1
    20    27    28    1
    21    28    29    2
    22    29    30    1
    23    30    31    2
    24     6     7   ar
    25     7     8   ar
    26    12    13   am
    27    13    14    1
    28     8     3   ar
    29    31    23    1
    30    31    26    1
    31    19    20    1
    32    13    15    1
    33    14    16    1
@<TRIPOS>MOLECULE
*****
 31 33 0 0 0
SMALL
GASTEIGER

@<TRIPOS>ATOM
      1 N          63.1568   87.1987   12.6848 N.3     1  UNL1       -0.2665
      2 C          62.3671   86.3098   11.7702 C.3     1  UNL1        0.0992
      3 C          59.9980   88.0981    8.3879 C.ar    1  UNL1        0.0001
      4 C          60.6094   86.7366    8.2378 C.ar    1  UNL1       -0.0003
      5 C          61.3991   86.1405    9.3652 C.ar    1  UNL1       -0.0029
      6 C          61.5774   86.9059   10.6428 C.ar    1  UNL1       -0.0061
      7 C          60.9660   88.2675   10.7930 C.ar    1  UNL1       -0.0029
      8 C          60.1763   88.8635    9.6655 C.ar    1  UNL1       -0.0003
      9 C          59.5267   90.0755    6.7701 C.2     1  UNL1        0.0598
     10 C          59.2083   88.6941    7.2605 C.2     1  UNL1        0.0047
     11 O          59.4380   91.4308    4.5553 O.2     1  UNL1       -0.2681
     12 C          58.7370   90.6716    5.6426 C.2     1  UNL1        0.2679
     13 N          57.2465   90.5085    5.6024 N.am    1  UNL1       -0.1934
     14 O          56.4569   91.1047    4.4749 O.3     1  UNL1       -0.2949
     15 H          56.7864   90.0102    6.3160 H       1  UNL1        0.1825
     16 H          57.0582   91.5578    3.8633 H       1  UNL1        0.2414
     17 C          63.4202   88.6247   12.3015 C.3     1  UNL1        0.1045
     18 C          63.5300   89.6787   13.3632 C.3     1  UNL1        0.1544
     19 O          62.3813   89.9269   14.2953 O.3     1  UNL1       -0.3805
     20 H          61.6288   90.2788   13.7945 H       1  UNL1        0.2105
     21 C          63.6830   86.6613   13.9826 C.3     1  UNL1        0.0772
     22 C          64.5352   85.4269   13.9928 C.3     1  UNL1        0.0453
     23 C          63.8928   84.0718   13.9599 C.2     1  UNL1       -0.0005
     24 C          63.2510   83.3718   15.1210 C.2     1  UNL1        0.0942
     25 N          62.7409   82.0462   14.6387 N.2     1  UNL1       -0.2482
     26 C          63.0675   81.9269   13.1795 C.2     1  UNL1        0.0631
     27 C          62.8086   80.8401   12.1787 C.3     1  UNL1        0.0717
     28 C          63.2616   81.0051   10.7583 C.2     1  UNL1       -0.0198
     29 C          63.9734   82.2570   10.3388 C.2     1  UNL1       -0.0042
     30 C          64.2323   83.3439   11.3396 C.2     1  UNL1        0.0006
     31 C          63.7794   83.1788   12.7600 C.2     1  UNL1        0.0114
@<TRIPOS>BOND
     1    11    12    2
     2    12     9    1
     3     9    10    2
     4    10     3    1
     5     3     4   ar
     6     4     5   ar
     7     5     6   ar
     8     6     2    1
     9     2     1    1
    10     1    17    1
    11    17    18    1
    12    18    19    1
    13     1    21    1
    14    21    22    1
    15    22    23    1
    16    23    24    2
    17    24    25    1
    18    25    26    2
    19    26    27    1
    20    27    28    1
    21    28    29    2
    22    29    30    1
    23    30    31    2
    24     6     7   ar
    25     7     8   ar
    26    12    13   am
    27    13    14    1
    28     8     3   ar
    29    31    23    1
    30    31    26    1
    31    19    20    1
    32    13    15    1
    33    14    16    1
@<TRIPOS>MOLECULE
*****
 31 33 0 0 0
SMALL
GASTEIGER

@<TRIPOS>ATOM
      1 N          62.1799   90.6700   11.0350 N.3     1  UNL1       -0.2665
      2 C          62.6925   90.1128   12.3298 C.3     1  UNL1        0.0992
      3 C          63.4263   85.6922   12.7431 C.ar    1  UNL1        0.0001
      4 C          62.6394   86.2162   11.5785 C.ar    1  UNL1       -0.0003
      5 C          62.3948   87.6898   11.4407 C.ar    1  UNL1       -0.0029
      6 C          62.9371   88.6393   12.4675 C.ar    1  UNL1       -0.0061
      7 C          63.7240   88.1152   13.6322 C.ar    1  UNL1       -0.0029
      8 C          63.9686   86.6417   13.7699 C.ar    1  UNL1       -0.0003
      9 C          62.5115   83.2705   12.9627 C.2     1  UNL1        0.0598
     10 C          63.6709   84.2187   12.8809 C.2     1  UNL1        0.0047
     11 O          62.9551   80.9522   11.8770 O.2     1  UNL1       -0.2681
     12 C          62.7559   81.7970   13.1004 C.2     1  UNL1        0.2679
     13 N          62.8013   81.1682   14.4615 N.am    1  UNL1       -0.1934
     14 O          63.0458   79.6946   14.5991 O.3     1  UNL1       -0.2949
     15 H          62.6706   81.7226   15.2645 H       1  UNL1        0.1825
     16 H          63.1526   79.3010   13.7190 H       1  UNL1        0.2414
     17 C          60.8115   90.2967   10.5472 C.3     1  UNL1        0.1045
     18 C          59.6498   90.3014   11.4961 C.3     1  UNL1        0.1544
     19 O          58.8018   91.5305   11.6375 O.3     1  UNL1       -0.3805
     20 H          59.3307   92.2454   12.0248 H       1  UNL1        0.2105
     21 C          63.0358   91.6007   10.2279 C.3     1  UNL1        0.0772
     22 C          64.5295   91.5456   10.3545 C.3     1  UNL1        0.0453
     23 C          65.2520   92.5792   11.1667 C.2     1  UNL1       -0.0005
     24 C          65.7064   93.9234   10.6802 C.2     1  UNL1        0.0942
     25 N          66.3822   94.6250   11.8209 N.2     1  UNL1       -0.2482
     26 C          66.3453   93.7144   13.0124 C.2     1  UNL1        0.0631
     27 C          66.8576   93.8733   14.4132 C.3     1  UNL1        0.0717
     28 C          66.6714   92.7677   15.4097 C.2     1  UNL1       -0.0198
     29 C          65.9729   91.5033   15.0053 C.2     1  UNL1       -0.0042
     30 C          65.4606   91.3445   13.6045 C.2     1  UNL1        0.0006
     31 C          65.6469   92.4501   12.6081 C.2     1  UNL1        0.0114
@<TRIPOS>BOND
     1    11    12    2
     2    12     9    1
     3     9    10    2
     4    10     3    1
     5     3     4   ar
     6     4     5   ar
     7     5     6   ar
     8     6     2    1
     9     2     1    1
    10     1    17    1
    11    17    18    1
    12    18    19    1
    13     1    21    1
    14    21    22    1
    15    22    23    1
    16    23    24    2
    17    24    25    1
    18    25    26    2
    19    26    27    1
    20    27    28    1
    21    28    29    2
    22    29    30    1
    23    30    31    2
    24     6     7   ar
    25     7     8   ar
    26    12    13   am
    27    13    14    1
    28     8     3   ar
    29    31    23    1
    30    31    26    1
    31    19    20    1
    32    13    15    1
    33    14    16    1
