@<TRIPOS>MOLECULE
*****
 33 37 0 0 0
SMALL
GASTEIGER

@<TRIPOS>ATOM
      1 C          62.9872   86.3294   12.4651 C.2     1  UNL1        0.2506
      2 O          63.4965   87.2145   13.5639 O.2     1  UNL1       -0.2699
      3 N          62.1946   86.9170   11.3353 N.am    1  UNL1       -0.2723
      4 C          61.6853   86.0319   10.2366 C.3     1  UNL1        0.1257
      5 C          60.8926   86.6196    9.1068 C.3     1  UNL1        0.1637
      6 O          60.6093   88.0922    9.0757 O.3     1  UNL1       -0.3502
      7 C          61.1187   88.9773   10.1745 C.3     1  UNL1        0.1622
      8 C          61.9113   88.3897   11.3043 C.3     1  UNL1        0.1096
      9 C          64.0382   81.8954    9.9681 C.3     1  UNL1        0.0310
     10 C          63.7960   82.6397   11.2477 C.ar    1  UNL1       -0.0216
     11 C          63.8372   81.9114   12.5583 C.ar    1  UNL1       -0.0026
     12 C          63.5951   82.6557   13.8379 C.ar    1  UNL1        0.0207
     13 C          63.3118   84.1284   13.8068 C.ar    1  UNL1        0.1072
     14 C          63.2706   84.8567   12.4962 C.ar    1  UNL1        0.0726
     15 C          63.5127   84.1124   11.2166 C.ar    1  UNL1        0.0018
     16 N          63.0696   84.8727   15.0864 N.ar    1  UNL1       -0.1477
     17 N          64.1112   85.5658   15.9139 N.ar    1  UNL1       -0.1447
     18 C          63.4287   86.1761   17.1021 C.ar    1  UNL1        0.1446
     19 C          61.9653   85.8601   17.0090 C.ar    1  UNL1        0.1446
     20 N          61.7434   85.0545   15.7633 N.ar    1  UNL1       -0.1447
     21 C          62.4206   89.2748   12.4030 C.3     1  UNL1        0.0487
     22 C          63.4383   90.3346   12.1014 C.ar    1  UNL1       -0.0204
     23 C          63.4320   91.0229   10.7687 C.ar    1  UNL1       -0.0042
     24 C          64.4497   92.0828   10.4671 C.ar    1  UNL1       -0.0003
     25 C          65.4738   92.4543   11.4982 C.ar    1  UNL1        0.0015
     26 C          65.4801   91.7659   12.8310 C.ar    1  UNL1        0.0173
     27 C          64.4624   90.7061   13.1326 C.ar    1  UNL1       -0.0027
     28 C          66.5042   92.1374   13.8621 C.ar    1  UNL1        0.0813
     29 C          66.0760   92.4532   15.2647 C.ar    1  UNL1        0.0191
     30 C          67.1001   92.8247   16.2958 C.ar    1  UNL1        0.0031
     31 C          68.5524   92.8804   15.9244 C.ar    1  UNL1        0.0207
     32 C          68.9805   92.5646   14.5219 C.ar    1  UNL1        0.0988
     33 N          67.9564   92.1931   13.4908 N.ar    1  UNL1       -0.2438
@<TRIPOS>BOND
     1     9    10    1
     2    10    11   ar
     3    11    12   ar
     4    12    13   ar
     5    13    16    1
     6    16    17   ar
     7    17    18   ar
     8    18    19   ar
     9    19    20   ar
    10    13    14   ar
    11    14     1    1
    12     1     2    2
    13     1     3   am
    14     3     4    1
    15     4     5    1
    16     5     6    1
    17     6     7    1
    18     7     8    1
    19     8    21    1
    20    21    22    1
    21    22    23   ar
    22    23    24   ar
    23    24    25   ar
    24    25    26   ar
    25    26    28    1
    26    28    29   ar
    27    29    30   ar
    28    30    31   ar
    29    31    32   ar
    30    32    33   ar
    31    26    27   ar
    32    14    15   ar
    33    15    10   ar
    34    20    16   ar
    35     8     3    1
    36    27    22   ar
    37    33    28   ar
@<TRIPOS>MOLECULE
*****
 33 37 0 0 0
SMALL
GASTEIGER

@<TRIPOS>ATOM
      1 C          62.6417   88.5011   11.5588 C.2     1  UNL1        0.2506
      2 O          62.6194   90.0009   11.5580 O.2     1  UNL1       -0.2699
      3 N          63.2969   87.7613   12.6872 N.am    1  UNL1       -0.2723
      4 C          63.3192   86.2615   12.6879 C.3     1  UNL1        0.1257
      5 C          63.9744   85.5217   13.8164 C.3     1  UNL1        0.1637
      6 O          64.6074   86.2817   14.9441 O.3     1  UNL1       -0.3502
      7 C          64.5851   87.7816   14.9434 C.3     1  UNL1        0.1622
      8 C          63.9299   88.5214   13.8149 C.3     1  UNL1        0.1096
      9 C          62.9836   84.9737    7.7586 C.3     1  UNL1        0.0310
     10 C          62.1798   85.9774    8.5310 C.ar    1  UNL1       -0.0216
     11 C          60.7430   86.2209    8.1756 C.ar    1  UNL1       -0.0026
     12 C          59.9391   87.2246    8.9479 C.ar    1  UNL1        0.0207
     13 C          60.5720   87.9846   10.0756 C.ar    1  UNL1        0.1072
     14 C          62.0087   87.7410   10.4310 C.ar    1  UNL1        0.0726
     15 C          62.8126   86.7374    9.6587 C.ar    1  UNL1        0.0018
     16 N          59.7681   88.9882   10.8480 N.ar    1  UNL1       -0.1477
     17 N          59.0232   88.7277   12.1236 N.ar    1  UNL1       -0.1447
     18 C          58.3627   90.0071   12.5443 C.ar    1  UNL1        0.1446
     19 C          58.6994   91.0583   11.5286 C.ar    1  UNL1        0.1446
     20 N          59.5680   90.4286   10.4803 N.ar    1  UNL1       -0.1447
     21 C          63.9076   90.0212   13.8142 C.3     1  UNL1        0.0487
     22 C          65.1927   90.7903   13.7328 C.ar    1  UNL1       -0.0204
     23 C          66.1320   90.8071   14.9022 C.ar    1  UNL1       -0.0042
     24 C          67.4173   91.5762   14.8209 C.ar    1  UNL1       -0.0003
     25 C          67.7632   92.3287   13.5702 C.ar    1  UNL1        0.0015
     26 C          66.8238   92.3119   12.4008 C.ar    1  UNL1        0.0173
     27 C          65.5386   91.5428   12.4822 C.ar    1  UNL1       -0.0027
     28 C          67.1697   93.0643   11.1501 C.ar    1  UNL1        0.0813
     29 C          67.8736   92.3654   10.0248 C.ar    1  UNL1        0.0191
     30 C          68.2195   93.1179    8.7741 C.ar    1  UNL1        0.0031
     31 C          67.8615   94.5692    8.6487 C.ar    1  UNL1        0.0207
     32 C          67.1576   95.2680    9.7740 C.ar    1  UNL1        0.0988
     33 N          66.8117   94.5155   11.0247 N.ar    1  UNL1       -0.2438
@<TRIPOS>BOND
     1     9    10    1
     2    10    11   ar
     3    11    12   ar
     4    12    13   ar
     5    13    16    1
     6    16    17   ar
     7    17    18   ar
     8    18    19   ar
     9    19    20   ar
    10    13    14   ar
    11    14     1    1
    12     1     2    2
    13     1     3   am
    14     3     4    1
    15     4     5    1
    16     5     6    1
    17     6     7    1
    18     7     8    1
    19     8    21    1
    20    21    22    1
    21    22    23   ar
    22    23    24   ar
    23    24    25   ar
    24    25    26   ar
    25    26    28    1
    26    28    29   ar
    27    29    30   ar
    28    30    31   ar
    29    31    32   ar
    30    32    33   ar
    31    26    27   ar
    32    14    15   ar
    33    15    10   ar
    34    20    16   ar
    35     8     3    1
    36    27    22   ar
    37    33    28   ar
@<TRIPOS>MOLECULE
*****
 33 37 0 0 0
SMALL
GASTEIGER

@<TRIPOS>ATOM
      1 C          63.3155   86.9641   13.0806 C.2     1  UNL1        0.2506
      2 O          63.7796   87.6255   14.3444 O.2     1  UNL1       -0.2699
      3 N          62.7740   87.7942   11.9547 N.am    1  UNL1       -0.2723
      4 C          62.3100   87.1328   10.6909 C.3     1  UNL1        0.1257
      5 C          61.7685   87.9630    9.5650 C.3     1  UNL1        0.1637
      6 O          61.6911   89.4546    9.7030 O.3     1  UNL1       -0.3502
      7 C          62.1552   90.1161   10.9668 C.3     1  UNL1        0.1622
      8 C          62.6966   89.2859   12.0926 C.3     1  UNL1        0.1096
      9 C          63.9790   82.7472   10.1178 C.3     1  UNL1        0.0310
     10 C          63.7247   83.3640   11.4613 C.ar    1  UNL1       -0.0216
     11 C          63.5478   82.4892   12.6668 C.ar    1  UNL1       -0.0026
     12 C          63.2935   83.1060   14.0103 C.ar    1  UNL1        0.0207
     13 C          63.2161   84.5976   14.1482 C.ar    1  UNL1        0.1072
     14 C          63.3929   85.4724   12.9427 C.ar    1  UNL1        0.0726
     15 C          63.6472   84.8556   11.5992 C.ar    1  UNL1        0.0018
     16 N          62.9618   85.2143   15.4917 N.ar    1  UNL1       -0.1477
     17 N          64.0048   85.7463   16.4293 N.ar    1  UNL1       -0.1447
     18 C          63.3075   86.2682   17.6505 C.ar    1  UNL1        0.1446
     19 C          61.8335   86.0588   17.4677 C.ar    1  UNL1        0.1446
     20 N          61.6199   85.4074   16.1335 N.ar    1  UNL1       -0.1447
     21 C          63.1607   89.9474   13.3564 C.3     1  UNL1        0.0487
     22 C          64.4486   90.7161   13.3713 C.ar    1  UNL1       -0.0204
     23 C          65.3680   90.6161   14.5523 C.ar    1  UNL1       -0.0042
     24 C          66.6560   91.3848   14.5673 C.ar    1  UNL1       -0.0003
     25 C          67.0246   92.2534   13.4013 C.ar    1  UNL1        0.0015
     26 C          66.1051   92.3534   12.2203 C.ar    1  UNL1        0.0173
     27 C          64.8172   91.5847   12.2053 C.ar    1  UNL1       -0.0027
     28 C          66.4737   93.2221   11.0543 C.ar    1  UNL1        0.0813
     29 C          67.4727   92.7387   10.0451 C.ar    1  UNL1        0.0191
     30 C          67.8413   93.6073    8.8791 C.ar    1  UNL1        0.0031
     31 C          67.2108   94.9594    8.7222 C.ar    1  UNL1        0.0207
     32 C          66.2119   95.4427    9.7314 C.ar    1  UNL1        0.0988
     33 N          65.8433   94.5741   10.8974 N.ar    1  UNL1       -0.2438
@<TRIPOS>BOND
     1     9    10    1
     2    10    11   ar
     3    11    12   ar
     4    12    13   ar
     5    13    16    1
     6    16    17   ar
     7    17    18   ar
     8    18    19   ar
     9    19    20   ar
    10    13    14   ar
    11    14     1    1
    12     1     2    2
    13     1     3   am
    14     3     4    1
    15     4     5    1
    16     5     6    1
    17     6     7    1
    18     7     8    1
    19     8    21    1
    20    21    22    1
    21    22    23   ar
    22    23    24   ar
    23    24    25   ar
    24    25    26   ar
    25    26    28    1
    26    28    29   ar
    27    29    30   ar
    28    30    31   ar
    29    31    32   ar
    30    32    33   ar
    31    26    27   ar
    32    14    15   ar
    33    15    10   ar
    34    20    16   ar
    35     8     3    1
    36    27    22   ar
    37    33    28   ar
@<TRIPOS>MOLECULE
*****
 33 37 0 0 0
SMALL
GASTEIGER

@<TRIPOS>ATOM
      1 C          62.7654   87.3325   11.8301 C.2     1  UNL1        0.2506
      2 O          63.4234   87.4856   13.1693 O.2     1  UNL1       -0.2699
      3 N          61.9640   88.4623   11.2547 N.am    1  UNL1       -0.2723
      4 C          61.3060   88.3093    9.9154 C.3     1  UNL1        0.1257
      5 C          60.5045   89.4392    9.3400 C.3     1  UNL1        0.1637
      6 O          60.3611   90.7221   10.1039 O.3     1  UNL1       -0.3502
      7 C          61.0190   90.8752   11.4432 C.3     1  UNL1        0.1622
      8 C          61.8205   89.7453   12.0186 C.3     1  UNL1        0.1096
      9 C          62.8033   84.7651    7.3127 C.3     1  UNL1        0.0310
     10 C          62.9278   84.7659    8.8075 C.ar    1  UNL1       -0.0216
     11 C          63.1959   83.4838    9.5384 C.ar    1  UNL1       -0.0026
     12 C          63.3204   83.4845   11.0332 C.ar    1  UNL1        0.0207
     13 C          63.1770   84.7674   11.7971 C.ar    1  UNL1        0.1072
     14 C          62.9089   86.0495   11.0662 C.ar    1  UNL1        0.0726
     15 C          62.7844   86.0487    9.5714 C.ar    1  UNL1        0.0018
     16 N          63.3015   84.7682   13.2919 N.ar    1  UNL1       -0.1477
     17 N          62.1663   84.7230   14.2713 N.ar    1  UNL1       -0.1447
     18 C          62.7463   84.7412   15.6545 C.ar    1  UNL1        0.1446
     19 C          64.2401   84.7976   15.5300 C.ar    1  UNL1        0.1446
     20 N          64.5832   84.8143   14.0699 N.ar    1  UNL1       -0.1447
     21 C          62.4785   89.8984   13.3578 C.3     1  UNL1        0.0487
     22 C          63.7912   90.6152   13.4710 C.ar    1  UNL1       -0.0204
     23 C          64.5838   90.5324   14.7417 C.ar    1  UNL1       -0.0042
     24 C          65.8966   91.2493   14.8549 C.ar    1  UNL1       -0.0003
     25 C          66.4167   92.0489   13.6973 C.ar    1  UNL1        0.0015
     26 C          65.6240   92.1317   12.4265 C.ar    1  UNL1        0.0173
     27 C          64.3113   91.4149   12.3134 C.ar    1  UNL1       -0.0027
     28 C          66.1441   92.9313   11.2689 C.ar    1  UNL1        0.0813
     29 C          67.2301   92.3718   10.3985 C.ar    1  UNL1        0.0191
     30 C          67.7502   93.1714    9.2409 C.ar    1  UNL1        0.0031
     31 C          67.1844   94.5306    8.9537 C.ar    1  UNL1        0.0207
     32 C          66.0984   95.0901    9.8241 C.ar    1  UNL1        0.0988
     33 N          65.5783   94.2905   10.9817 N.ar    1  UNL1       -0.2438
@<TRIPOS>BOND
     1     9    10    1
     2    10    11   ar
     3    11    12   ar
     4    12    13   ar
     5    13    16    1
     6    16    17   ar
     7    17    18   ar
     8    18    19   ar
     9    19    20   ar
    10    13    14   ar
    11    14     1    1
    12     1     2    2
    13     1     3   am
    14     3     4    1
    15     4     5    1
    16     5     6    1
    17     6     7    1
    18     7     8    1
    19     8    21    1
    20    21    22    1
    21    22    23   ar
    22    23    24   ar
    23    24    25   ar
    24    25    26   ar
    25    26    28    1
    26    28    29   ar
    27    29    30   ar
    28    30    31   ar
    29    31    32   ar
    30    32    33   ar
    31    26    27   ar
    32    14    15   ar
    33    15    10   ar
    34    20    16   ar
    35     8     3    1
    36    27    22   ar
    37    33    28   ar
@<TRIPOS>MOLECULE
*****
 33 37 0 0 0
SMALL
GASTEIGER

@<TRIPOS>ATOM
      1 C          63.4081   87.8714   13.2448 C.2     1  UNL1        0.2506
      2 O          63.6240   88.9845   12.2627 O.2     1  UNL1       -0.2699
      3 N          63.3441   88.1691   14.7135 N.am    1  UNL1       -0.2723
      4 C          63.1282   87.0561   15.6957 C.3     1  UNL1        0.1257
      5 C          63.0642   87.3538   17.1645 C.3     1  UNL1        0.1637
      6 O          63.2160   88.7645   17.6511 O.3     1  UNL1       -0.3502
      7 C          63.4318   89.8775   16.6690 C.3     1  UNL1        0.1622
      8 C          63.4959   89.5798   15.2002 C.3     1  UNL1        0.1096
      9 C          64.6019   82.8283   13.6213 C.3     1  UNL1        0.0310
     10 C          63.8532   83.9391   12.9464 C.ar    1  UNL1       -0.0216
     11 C          62.9528   83.6393   11.7849 C.ar    1  UNL1       -0.0026
     12 C          62.2041   84.7501   11.1100 C.ar    1  UNL1        0.0207
     13 C          62.3559   86.1608   11.5966 C.ar    1  UNL1        0.1072
     14 C          63.2563   86.4607   12.7581 C.ar    1  UNL1        0.0726
     15 C          64.0050   85.3498   13.4330 C.ar    1  UNL1        0.0018
     16 N          61.6072   87.2716   10.9217 N.ar    1  UNL1       -0.1477
     17 N          60.4067   87.9854   11.4687 N.ar    1  UNL1       -0.1447
     18 C          59.9851   89.0187   10.4663 C.ar    1  UNL1        0.1446
     19 C          60.9250   88.9434    9.2998 C.ar    1  UNL1        0.1446
     20 N          61.9275   87.8637    9.5812 N.ar    1  UNL1       -0.1447
     21 C          63.7117   90.6929   14.2181 C.3     1  UNL1        0.0487
     22 C          65.0911   91.2375   13.9930 C.ar    1  UNL1       -0.0204
     23 C          66.1313   91.1122   15.0664 C.ar    1  UNL1       -0.0042
     24 C          67.5107   91.6568   14.8413 C.ar    1  UNL1       -0.0003
     25 C          67.8499   92.3267   13.5427 C.ar    1  UNL1        0.0015
     26 C          66.8096   92.4520   12.4693 C.ar    1  UNL1        0.0173
     27 C          65.4302   91.9074   12.6944 C.ar    1  UNL1       -0.0027
     28 C          67.1488   93.1218   11.1707 C.ar    1  UNL1        0.0813
     29 C          67.8520   92.3531   10.0915 C.ar    1  UNL1        0.0191
     30 C          68.1911   93.0230    8.7929 C.ar    1  UNL1        0.0031
     31 C          67.8271   94.4616    8.5736 C.ar    1  UNL1        0.0207
     32 C          67.1239   95.2302    9.6528 C.ar    1  UNL1        0.0988
     33 N          66.7848   94.5603   10.9514 N.ar    1  UNL1       -0.2438
@<TRIPOS>BOND
     1     9    10    1
     2    10    11   ar
     3    11    12   ar
     4    12    13   ar
     5    13    16    1
     6    16    17   ar
     7    17    18   ar
     8    18    19   ar
     9    19    20   ar
    10    13    14   ar
    11    14     1    1
    12     1     2    2
    13     1     3   am
    14     3     4    1
    15     4     5    1
    16     5     6    1
    17     6     7    1
    18     7     8    1
    19     8    21    1
    20    21    22    1
    21    22    23   ar
    22    23    24   ar
    23    24    25   ar
    24    25    26   ar
    25    26    28    1
    26    28    29   ar
    27    29    30   ar
    28    30    31   ar
    29    31    32   ar
    30    32    33   ar
    31    26    27   ar
    32    14    15   ar
    33    15    10   ar
    34    20    16   ar
    35     8     3    1
    36    27    22   ar
    37    33    28   ar
@<TRIPOS>MOLECULE
*****
 33 37 0 0 0
SMALL
GASTEIGER

@<TRIPOS>ATOM
      1 C          62.7071   87.3802   11.6781 C.2     1  UNL1        0.2506
      2 O          63.6900   87.8286   12.7187 O.2     1  UNL1       -0.2699
      3 N          61.5664   88.2734   11.2895 N.am    1  UNL1       -0.2723
      4 C          60.5835   87.8250   10.2489 C.3     1  UNL1        0.1257
      5 C          59.4428   88.7182    9.8603 C.3     1  UNL1        0.1637
      6 O          59.2851   90.0599   10.5123 O.3     1  UNL1       -0.3502
      7 C          60.2680   90.5083   11.5529 C.3     1  UNL1        0.1622
      8 C          61.4086   89.6151   11.9415 C.3     1  UNL1        0.1096
      9 C          62.8432   84.4490    7.3897 C.3     1  UNL1        0.0310
     10 C          62.9329   84.5730    8.8819 C.ar    1  UNL1       -0.0216
     11 C          63.1805   83.3553    9.7221 C.ar    1  UNL1       -0.0026
     12 C          63.2702   83.4792   11.2143 C.ar    1  UNL1        0.0207
     13 C          63.1124   84.8208   11.8663 C.ar    1  UNL1        0.1072
     14 C          62.8649   86.0385   11.0261 C.ar    1  UNL1        0.0726
     15 C          62.7752   85.9146    9.5339 C.ar    1  UNL1        0.0018
     16 N          63.2021   84.9447   13.3584 N.ar    1  UNL1       -0.1477
     17 N          62.0686   84.7790   14.3267 N.ar    1  UNL1       -0.1447
     18 C          62.6070   84.9880   15.7110 C.ar    1  UNL1        0.1446
     19 C          64.0734   85.2829   15.5984 C.ar    1  UNL1        0.1446
     20 N          64.4412   85.2562   14.1444 N.ar    1  UNL1       -0.1447
     21 C          62.3915   90.0635   12.9821 C.3     1  UNL1        0.0487
     22 C          63.5659   90.9100   12.5892 C.ar    1  UNL1       -0.0204
     23 C          63.7084   91.3840   11.1732 C.ar    1  UNL1       -0.0042
     24 C          64.8828   92.2305   10.7803 C.ar    1  UNL1       -0.0003
     25 C          65.9146   92.6030   11.8034 C.ar    1  UNL1        0.0015
     26 C          65.7720   92.1289   13.2194 C.ar    1  UNL1        0.0173
     27 C          64.5977   91.2824   13.6122 C.ar    1  UNL1       -0.0027
     28 C          66.8038   92.5013   14.2424 C.ar    1  UNL1        0.0813
     29 C          67.4069   91.4438   15.1188 C.ar    1  UNL1        0.0191
     30 C          68.4387   91.8162   16.1419 C.ar    1  UNL1        0.0031
     31 C          68.8674   93.2462   16.2886 C.ar    1  UNL1        0.0207
     32 C          68.2643   94.3037   15.4122 C.ar    1  UNL1        0.0988
     33 N          67.2325   93.9312   14.3892 N.ar    1  UNL1       -0.2438
@<TRIPOS>BOND
     1     9    10    1
     2    10    11   ar
     3    11    12   ar
     4    12    13   ar
     5    13    16    1
     6    16    17   ar
     7    17    18   ar
     8    18    19   ar
     9    19    20   ar
    10    13    14   ar
    11    14     1    1
    12     1     2    2
    13     1     3   am
    14     3     4    1
    15     4     5    1
    16     5     6    1
    17     6     7    1
    18     7     8    1
    19     8    21    1
    20    21    22    1
    21    22    23   ar
    22    23    24   ar
    23    24    25   ar
    24    25    26   ar
    25    26    28    1
    26    28    29   ar
    27    29    30   ar
    28    30    31   ar
    29    31    32   ar
    30    32    33   ar
    31    26    27   ar
    32    14    15   ar
    33    15    10   ar
    34    20    16   ar
    35     8     3    1
    36    27    22   ar
    37    33    28   ar
@<TRIPOS>MOLECULE
*****
 33 37 0 0 0
SMALL
GASTEIGER

@<TRIPOS>ATOM
      1 C          62.6352   88.1060   10.9506 C.2     1  UNL1        0.2506
      2 O          63.0290   89.5436   10.7825 O.2     1  UNL1       -0.2699
      3 N          63.0581   87.3509   12.1756 N.am    1  UNL1       -0.2723
      4 C          62.6643   85.9133   12.3437 C.3     1  UNL1        0.1257
      5 C          63.0873   85.1581   13.5689 C.3     1  UNL1        0.1637
      6 O          63.9041   85.8405   14.6258 O.3     1  UNL1       -0.3502
      7 C          64.2979   87.2781   14.4577 C.3     1  UNL1        0.1622
      8 C          63.8749   88.0333   13.2326 C.3     1  UNL1        0.1096
      9 C          62.2869   84.7429    7.0049 C.3     1  UNL1        0.0310
     10 C          61.6443   85.7421    7.9207 C.ar    1  UNL1       -0.0216
     11 C          60.1850   86.0588    7.7796 C.ar    1  UNL1       -0.0026
     12 C          59.5424   87.0579    8.6954 C.ar    1  UNL1        0.0207
     13 C          60.3591   87.7403    9.7524 C.ar    1  UNL1        0.1072
     14 C          61.8184   87.4236    9.8935 C.ar    1  UNL1        0.0726
     15 C          62.4610   86.4245    8.9777 C.ar    1  UNL1        0.0018
     16 N          59.7164   88.7395   10.6682 N.ar    1  UNL1       -0.1477
     17 N          59.0738   88.4385   11.9897 N.ar    1  UNL1       -0.1447
     18 C          58.5638   89.7280   12.5616 C.ar    1  UNL1        0.1446
     19 C          58.8912   90.8260   11.5935 C.ar    1  UNL1        0.1446
     20 N          59.6036   90.2150   10.4234 N.ar    1  UNL1       -0.1447
     21 C          64.2687   89.4709   13.0645 C.3     1  UNL1        0.0487
     22 C          64.5034   90.3303   14.2713 C.ar    1  UNL1       -0.0204
     23 C          63.4273   90.4810   15.3053 C.ar    1  UNL1       -0.0042
     24 C          63.6619   91.3404   16.5122 C.ar    1  UNL1       -0.0003
     25 C          64.9725   92.0492   16.6849 C.ar    1  UNL1        0.0015
     26 C          66.0486   91.8984   15.6507 C.ar    1  UNL1        0.0173
     27 C          65.8140   91.0390   14.4440 C.ar    1  UNL1       -0.0027
     28 C          67.3593   92.6072   15.8234 C.ar    1  UNL1        0.0813
     29 C          68.5709   91.8447   16.2718 C.ar    1  UNL1        0.0191
     30 C          69.8816   92.5534   16.4445 C.ar    1  UNL1        0.0031
     31 C          69.9807   94.0246   16.1688 C.ar    1  UNL1        0.0207
     32 C          68.7692   94.7870   15.7206 C.ar    1  UNL1        0.0988
     33 N          67.4585   94.0783   15.5479 N.ar    1  UNL1       -0.2438
@<TRIPOS>BOND
     1     9    10    1
     2    10    11   ar
     3    11    12   ar
     4    12    13   ar
     5    13    16    1
     6    16    17   ar
     7    17    18   ar
     8    18    19   ar
     9    19    20   ar
    10    13    14   ar
    11    14     1    1
    12     1     2    2
    13     1     3   am
    14     3     4    1
    15     4     5    1
    16     5     6    1
    17     6     7    1
    18     7     8    1
    19     8    21    1
    20    21    22    1
    21    22    23   ar
    22    23    24   ar
    23    24    25   ar
    24    25    26   ar
    25    26    28    1
    26    28    29   ar
    27    29    30   ar
    28    30    31   ar
    29    31    32   ar
    30    32    33   ar
    31    26    27   ar
    32    14    15   ar
    33    15    10   ar
    34    20    16   ar
    35     8     3    1
    36    27    22   ar
    37    33    28   ar
