@<TRIPOS>MOLECULE
*****
 28 31 0 0 0
SMALL
GASTEIGER

@<TRIPOS>ATOM
      1 C          64.2551   88.9707   14.2214 C.ar    1  UNL1        0.1384
      2 C          63.5025   89.2999   12.9664 C.ar    1  UNL1        0.0369
      3 C          63.7575   90.5969   12.2574 C.ar    1  UNL1        0.0031
      4 C          64.7652   91.5646   12.8034 C.ar    1  UNL1        0.0003
      5 C          65.0202   92.8616   12.0943 C.ar    1  UNL1        0.0045
      6 C          66.0279   93.8294   12.6402 C.ar    1  UNL1        0.0536
      7 C          66.7806   93.5000   13.8953 C.ar    1  UNL1        0.0045
      8 C          66.5256   92.2031   14.6043 C.ar    1  UNL1        0.0002
      9 C          65.5179   91.2354   14.0584 C.ar    1  UNL1        0.0030
     10 C          65.2628   89.9384   14.7674 C.ar    1  UNL1        0.0369
     11 C          66.2830   95.1263   11.9312 C.2     1  UNL1        0.2492
     12 O          66.0013   96.4272   12.6228 O.2     1  UNL1       -0.2699
     13 N          66.8197   95.1225   10.5305 N.am    1  UNL1       -0.2709
     14 C          67.1014   93.8216    9.8388 C.3     1  UNL1        0.1258
     15 C          67.6381   93.8176    8.4382 C.3     1  UNL1        0.1637
     16 O          67.8932   95.1146    7.7292 O.3     1  UNL1       -0.3501
     17 C          67.6115   96.4155    8.4208 C.3     1  UNL1        0.1637
     18 C          67.0748   96.4194    9.8214 C.3     1  UNL1        0.1258
     19 O          64.0001   87.6736   14.9305 O.3     1  UNL1       -0.4791
     20 N          63.7863   83.8349   12.5920 N.3     1  UNL1       -0.2737
     21 C          63.0072   85.0337   12.1385 C.3     1  UNL1        0.0758
     22 C          63.0784   86.3134   12.9180 C.3     1  UNL1        0.0609
     23 C          63.9288   86.3941   14.1510 C.3     1  UNL1        0.1687
     24 C          64.7080   85.1952   14.6045 C.3     1  UNL1        0.0609
     25 C          64.6368   83.9157   13.8250 C.3     1  UNL1        0.0758
     26 C          63.1610   81.3171   12.4526 C.3     1  UNL1        0.0173
     27 C          63.7151   82.5554   11.8125 C.3     1  UNL1        0.0576
     28 C          64.1979   82.5141   10.3929 C.3     1  UNL1        0.0173
@<TRIPOS>BOND
     1    26    27    1
     2    27    28    1
     3    27    20    1
     4    20    21    1
     5    21    22    1
     6    22    23    1
     7    23    19    1
     8    19     1    1
     9     1     2   ar
    10     2     3   ar
    11     3     4   ar
    12     4     5   ar
    13     5     6   ar
    14     6    11    1
    15    11    12    2
    16    11    13   am
    17    13    14    1
    18    14    15    1
    19    15    16    1
    20    16    17    1
    21    17    18    1
    22     6     7   ar
    23     7     8   ar
    24     8     9   ar
    25     9    10   ar
    26    23    24    1
    27    24    25    1
    28    25    20    1
    29    10     1   ar
    30     9     4   ar
    31    18    13    1
@<TRIPOS>MOLECULE
*****
 28 31 0 0 0
SMALL
GASTEIGER

@<TRIPOS>ATOM
      1 C          64.0920   90.2031   13.6146 C.ar    1  UNL1        0.1384
      2 C          63.3590   89.7495   12.3871 C.ar    1  UNL1        0.0369
      3 C          63.0303   88.2975   12.2035 C.ar    1  UNL1        0.0031
      4 C          63.4348   87.2992   13.2473 C.ar    1  UNL1        0.0003
      5 C          63.1061   85.8471   13.0636 C.ar    1  UNL1        0.0045
      6 C          63.5106   84.8487   14.1075 C.ar    1  UNL1        0.0536
      7 C          64.2437   85.3024   15.3351 C.ar    1  UNL1        0.0045
      8 C          64.5723   86.7544   15.5187 C.ar    1  UNL1        0.0002
      9 C          64.1679   87.7527   14.4748 C.ar    1  UNL1        0.0030
     10 C          64.4965   89.2047   14.6585 C.ar    1  UNL1        0.0369
     11 C          63.1819   83.3968   13.9239 C.2     1  UNL1        0.2492
     12 O          62.6829   82.5881   15.0845 O.2     1  UNL1       -0.2699
     13 N          63.3523   82.7534   12.5795 N.am    1  UNL1       -0.2709
     14 C          63.8513   83.5621   11.4189 C.3     1  UNL1        0.1258
     15 C          64.0217   82.9188   10.0746 C.3     1  UNL1        0.1637
     16 O          63.6930   81.4668    9.8910 O.3     1  UNL1       -0.3501
     17 C          63.1940   80.6582   11.0516 C.3     1  UNL1        0.1637
     18 C          63.0237   81.3015   12.3959 C.3     1  UNL1        0.1258
     19 O          64.4207   91.6551   13.7983 O.3     1  UNL1       -0.4791
     20 N          66.5499   93.9101   10.5377 N.3     1  UNL1       -0.2737
     21 C          65.6411   92.7686   10.1899 C.3     1  UNL1        0.0758
     22 C          64.9313   92.0169   11.2767 C.3     1  UNL1        0.0609
     23 C          65.1304   92.4068   12.7114 C.3     1  UNL1        0.1687
     24 C          66.0393   93.5483   13.0593 C.3     1  UNL1        0.0609
     25 C          66.7489   94.3000   11.9724 C.3     1  UNL1        0.0758
     26 C          68.0251   93.9149    8.3991 C.3     1  UNL1        0.0173
     27 C          67.2595   94.6618    9.4509 C.3     1  UNL1        0.0576
     28 C          67.2037   96.1604    9.4157 C.3     1  UNL1        0.0173
@<TRIPOS>BOND
     1    26    27    1
     2    27    28    1
     3    27    20    1
     4    20    21    1
     5    21    22    1
     6    22    23    1
     7    23    19    1
     8    19     1    1
     9     1     2   ar
    10     2     3   ar
    11     3     4   ar
    12     4     5   ar
    13     5     6   ar
    14     6    11    1
    15    11    12    2
    16    11    13   am
    17    13    14    1
    18    14    15    1
    19    15    16    1
    20    16    17    1
    21    17    18    1
    22     6     7   ar
    23     7     8   ar
    24     8     9   ar
    25     9    10   ar
    26    23    24    1
    27    24    25    1
    28    25    20    1
    29    10     1   ar
    30     9     4   ar
    31    18    13    1
@<TRIPOS>MOLECULE
*****
 28 31 0 0 0
SMALL
GASTEIGER

@<TRIPOS>ATOM
      1 C          63.6645   89.2791   13.5294 C.ar    1  UNL1        0.1384
      2 C          64.3494   88.3882   14.5229 C.ar    1  UNL1        0.0369
      3 C          64.4080   86.9080   14.2874 C.ar    1  UNL1        0.0031
      4 C          63.7819   86.3187   13.0584 C.ar    1  UNL1        0.0003
      5 C          63.8406   84.8384   12.8229 C.ar    1  UNL1        0.0045
      6 C          63.2144   84.2491   11.5938 C.ar    1  UNL1        0.0536
      7 C          62.5295   85.1401   10.6002 C.ar    1  UNL1        0.0045
      8 C          62.4709   86.6203   10.8357 C.ar    1  UNL1        0.0002
      9 C          63.0970   87.2096   12.0648 C.ar    1  UNL1        0.0030
     10 C          63.0384   88.6898   12.3003 C.ar    1  UNL1        0.0369
     11 C          63.2731   82.7689   11.3583 C.2     1  UNL1        0.2492
     12 O          63.9409   82.2312   10.1275 O.2     1  UNL1       -0.2699
     13 N          62.6639   81.8264   12.3536 N.am    1  UNL1       -0.2709
     14 C          61.9961   82.3641   13.5844 C.3     1  UNL1        0.1258
     15 C          61.3869   81.4216   14.5797 C.3     1  UNL1        0.1637
     16 O          61.4456   79.9414   14.3442 O.3     1  UNL1       -0.3501
     17 C          62.1134   79.4037   13.1134 C.3     1  UNL1        0.1637
     18 C          62.7226   80.3462   12.1181 C.3     1  UNL1        0.1258
     19 O          63.6058   90.7594   13.7648 O.3     1  UNL1       -0.4791
     20 N          66.0684   93.5411   11.2255 N.3     1  UNL1       -0.2737
     21 C          64.9564   92.7471   10.6065 C.3     1  UNL1        0.0758
     22 C          64.1355   91.8199   11.4530 C.3     1  UNL1        0.0609
     23 C          64.4266   91.6866   12.9184 C.3     1  UNL1        0.1687
     24 C          65.5387   92.4806   13.5374 C.3     1  UNL1        0.0609
     25 C          66.3595   93.4078   12.6910 C.3     1  UNL1        0.0758
     26 C          66.7045   95.9522   10.4964 C.3     1  UNL1        0.0173
     27 C          66.8892   94.4683   10.3791 C.3     1  UNL1        0.0576
     28 C          67.8948   93.9115    9.4153 C.3     1  UNL1        0.0173
@<TRIPOS>BOND
     1    26    27    1
     2    27    28    1
     3    27    20    1
     4    20    21    1
     5    21    22    1
     6    22    23    1
     7    23    19    1
     8    19     1    1
     9     1     2   ar
    10     2     3   ar
    11     3     4   ar
    12     4     5   ar
    13     5     6   ar
    14     6    11    1
    15    11    12    2
    16    11    13   am
    17    13    14    1
    18    14    15    1
    19    15    16    1
    20    16    17    1
    21    17    18    1
    22     6     7   ar
    23     7     8   ar
    24     8     9   ar
    25     9    10   ar
    26    23    24    1
    27    24    25    1
    28    25    20    1
    29    10     1   ar
    30     9     4   ar
    31    18    13    1
@<TRIPOS>MOLECULE
*****
 28 31 0 0 0
SMALL
GASTEIGER

@<TRIPOS>ATOM
      1 C          58.8953   90.3146    5.8700 C.ar    1  UNL1        0.1384
      2 C          57.9675   91.3315    5.2742 C.ar    1  UNL1        0.0369
      3 C          58.4682   92.2802    4.2258 C.ar    1  UNL1        0.0031
      4 C          59.8966   92.2120    3.7732 C.ar    1  UNL1        0.0003
      5 C          60.3973   93.1609    2.7247 C.ar    1  UNL1        0.0045
      6 C          61.8257   93.0927    2.2721 C.ar    1  UNL1        0.0536
      7 C          62.7536   92.0757    2.8679 C.ar    1  UNL1        0.0045
      8 C          62.2529   91.1270    3.9164 C.ar    1  UNL1        0.0002
      9 C          60.8245   91.1951    4.3690 C.ar    1  UNL1        0.0030
     10 C          60.3238   90.2464    5.4174 C.ar    1  UNL1        0.0369
     11 C          62.3264   94.0414    1.2237 C.2     1  UNL1        0.2492
     12 O          63.4321   95.0018    1.5477 O.2     1  UNL1       -0.2699
     13 N          61.7213   94.0298   -0.1489 N.am    1  UNL1       -0.2709
     14 C          60.6156   93.0694   -0.4729 C.3     1  UNL1        0.1258
     15 C          60.0105   93.0578   -1.8454 C.3     1  UNL1        0.1637
     16 O          60.5111   94.0065   -2.8938 O.3     1  UNL1       -0.3501
     17 C          61.6169   94.9669   -2.5697 C.3     1  UNL1        0.1637
     18 C          62.2220   94.9785   -1.1973 C.3     1  UNL1        0.1258
     19 O          58.3947   89.3658    6.9184 O.3     1  UNL1       -0.4791
     20 N          61.2779   86.6567    9.0627 N.3     1  UNL1       -0.2737
     21 C          60.3720   86.1006    8.0044 C.3     1  UNL1        0.0758
     22 C          59.4108   87.0037    7.2896 C.3     1  UNL1        0.0609
     23 C          59.3558   88.4627    7.6332 C.3     1  UNL1        0.1687
     24 C          60.2618   89.0188    8.6915 C.3     1  UNL1        0.0609
     25 C          61.2228   88.1158    9.4062 C.3     1  UNL1        0.0758
     26 C          63.2068   84.9175    8.9937 C.3     1  UNL1        0.0173
     27 C          62.2390   85.7537    9.7774 C.3     1  UNL1        0.0576
     28 C          62.2323   85.6867   11.2759 C.3     1  UNL1        0.0173
@<TRIPOS>BOND
     1    26    27    1
     2    27    28    1
     3    27    20    1
     4    20    21    1
     5    21    22    1
     6    22    23    1
     7    23    19    1
     8    19     1    1
     9     1     2   ar
    10     2     3   ar
    11     3     4   ar
    12     4     5   ar
    13     5     6   ar
    14     6    11    1
    15    11    12    2
    16    11    13   am
    17    13    14    1
    18    14    15    1
    19    15    16    1
    20    16    17    1
    21    17    18    1
    22     6     7   ar
    23     7     8   ar
    24     8     9   ar
    25     9    10   ar
    26    23    24    1
    27    24    25    1
    28    25    20    1
    29    10     1   ar
    30     9     4   ar
    31    18    13    1
@<TRIPOS>MOLECULE
*****
 28 31 0 0 0
SMALL
GASTEIGER

@<TRIPOS>ATOM
      1 C          59.3605   88.5561    7.6285 C.ar    1  UNL1        0.1384
      2 C          59.3010   87.2135    6.9623 C.ar    1  UNL1        0.0369
      3 C          60.0857   86.0637    7.5208 C.ar    1  UNL1        0.0031
      4 C          60.9299   86.2563    8.7457 C.ar    1  UNL1        0.0003
      5 C          61.7146   85.1064    9.3043 C.ar    1  UNL1        0.0045
      6 C          62.5587   85.2991   10.5291 C.ar    1  UNL1        0.0536
      7 C          62.6182   86.6417   11.1954 C.ar    1  UNL1        0.0045
      8 C          61.8335   87.7916   10.6368 C.ar    1  UNL1        0.0002
      9 C          60.9894   87.5989    9.4120 C.ar    1  UNL1        0.0030
     10 C          60.2047   88.7488    8.8534 C.ar    1  UNL1        0.0369
     11 C          63.3434   84.1492   11.0877 C.2     1  UNL1        0.2492
     12 O          64.2413   83.3484   10.1919 O.2     1  UNL1       -0.2699
     13 N          63.2302   83.8001   12.5421 N.am    1  UNL1       -0.2709
     14 C          62.3323   84.6009   13.4379 C.3     1  UNL1        0.1258
     15 C          62.2191   84.2518   14.8923 C.3     1  UNL1        0.1637
     16 O          63.0037   83.1020   15.4509 O.3     1  UNL1       -0.3501
     17 C          63.9016   82.3012   14.5551 C.3     1  UNL1        0.1637
     18 C          64.0149   82.6502   13.1007 C.3     1  UNL1        0.1258
     19 O          58.5758   89.7060    7.0700 O.3     1  UNL1       -0.4791
     20 N          60.2594   92.1452    3.6838 N.3     1  UNL1       -0.2737
     21 C          61.1591   91.2494    4.4826 C.3     1  UNL1        0.0758
     22 C          60.5980   90.4364    5.6113 C.3     1  UNL1        0.0609
     23 C          59.1370   90.5191    5.9413 C.3     1  UNL1        0.1687
     24 C          58.2373   91.4149    5.1424 C.3     1  UNL1        0.0609
     25 C          58.7985   92.2279    4.0137 C.3     1  UNL1        0.0758
     26 C          60.1563   94.2413    2.1524 C.3     1  UNL1        0.0173
     27 C          60.8206   92.9582    2.5551 C.3     1  UNL1        0.0576
     28 C          62.0462   92.4881    1.8291 C.3     1  UNL1        0.0173
@<TRIPOS>BOND
     1    26    27    1
     2    27    28    1
     3    27    20    1
     4    20    21    1
     5    21    22    1
     6    22    23    1
     7    23    19    1
     8    19     1    1
     9     1     2   ar
    10     2     3   ar
    11     3     4   ar
    12     4     5   ar
    13     5     6   ar
    14     6    11    1
    15    11    12    2
    16    11    13   am
    17    13    14    1
    18    14    15    1
    19    15    16    1
    20    16    17    1
    21    17    18    1
    22     6     7   ar
    23     7     8   ar
    24     8     9   ar
    25     9    10   ar
    26    23    24    1
    27    24    25    1
    28    25    20    1
    29    10     1   ar
    30     9     4   ar
    31    18    13    1
@<TRIPOS>MOLECULE
*****
 28 31 0 0 0
SMALL
GASTEIGER

@<TRIPOS>ATOM
      1 C          63.4772   89.2423   13.2566 C.ar    1  UNL1        0.1384
      2 C          62.7332   88.7690   12.0432 C.ar    1  UNL1        0.0369
      3 C          62.7028   87.3081   11.7046 C.ar    1  UNL1        0.0031
      4 C          63.4164   86.3204   12.5794 C.ar    1  UNL1        0.0003
      5 C          63.3860   84.8594   12.2407 C.ar    1  UNL1        0.0045
      6 C          64.0996   83.8718   13.1156 C.ar    1  UNL1        0.0536
      7 C          64.8436   84.3451   14.3290 C.ar    1  UNL1        0.0045
      8 C          64.8740   85.8060   14.6676 C.ar    1  UNL1        0.0002
      9 C          64.1604   86.7937   13.7928 C.ar    1  UNL1        0.0030
     10 C          64.1908   88.2546   14.1314 C.ar    1  UNL1        0.0369
     11 C          64.0691   82.4108   12.7770 C.2     1  UNL1        0.2492
     12 O          65.1913   81.7995   11.9915 O.2     1  UNL1       -0.2699
     13 N          62.9165   81.5612   13.2238 N.am    1  UNL1       -0.2709
     14 C          61.7943   82.1726   14.0093 C.3     1  UNL1        0.1258
     15 C          60.6417   81.3230   14.4562 C.3     1  UNL1        0.1637
     16 O          60.6113   79.8621   14.1176 O.3     1  UNL1       -0.3501
     17 C          61.7335   79.2507   13.3321 C.3     1  UNL1        0.1637
     18 C          62.8861   80.1003   12.8852 C.3     1  UNL1        0.1258
     19 O          63.5077   90.7033   13.5953 O.3     1  UNL1       -0.4791
     20 N          66.0603   93.5188   11.1855 N.3     1  UNL1       -0.2737
     21 C          66.3310   93.3267   12.6482 C.3     1  UNL1        0.0758
     22 C          65.4801   92.3882   13.4516 C.3     1  UNL1        0.0609
     23 C          64.3585   91.6418   12.7920 C.3     1  UNL1        0.1687
     24 C          64.0878   91.8340   11.3292 C.3     1  UNL1        0.0609
     25 C          64.9387   92.7725   10.5259 C.3     1  UNL1        0.0758
     26 C          66.7369   95.9399   10.5293 C.3     1  UNL1        0.0173
     27 C          66.9111   94.4573   10.3822 C.3     1  UNL1        0.0576
     28 C          67.9363   93.9133    9.4319 C.3     1  UNL1        0.0173
@<TRIPOS>BOND
     1    26    27    1
     2    27    28    1
     3    27    20    1
     4    20    21    1
     5    21    22    1
     6    22    23    1
     7    23    19    1
     8    19     1    1
     9     1     2   ar
    10     2     3   ar
    11     3     4   ar
    12     4     5   ar
    13     5     6   ar
    14     6    11    1
    15    11    12    2
    16    11    13   am
    17    13    14    1
    18    14    15    1
    19    15    16    1
    20    16    17    1
    21    17    18    1
    22     6     7   ar
    23     7     8   ar
    24     8     9   ar
    25     9    10   ar
    26    23    24    1
    27    24    25    1
    28    25    20    1
    29    10     1   ar
    30     9     4   ar
    31    18    13    1
@<TRIPOS>MOLECULE
*****
 28 31 0 0 0
SMALL
GASTEIGER

@<TRIPOS>ATOM
      1 C          59.2030   88.9071    7.4746 C.ar    1  UNL1        0.1384
      2 C          59.0327   87.4186    7.4029 C.ar    1  UNL1        0.0369
      3 C          59.7827   86.5314    8.3517 C.ar    1  UNL1        0.0031
      4 C          60.7030   87.1327    9.3722 C.ar    1  UNL1        0.0003
      5 C          61.4530   86.2453   10.3210 C.ar    1  UNL1        0.0045
      6 C          62.3733   86.8467   11.3415 C.ar    1  UNL1        0.0536
      7 C          62.5436   88.3353   11.4133 C.ar    1  UNL1        0.0045
      8 C          61.7936   89.2225   10.4645 C.ar    1  UNL1        0.0002
      9 C          60.8733   88.6212    9.4439 C.ar    1  UNL1        0.0030
     10 C          60.1233   89.5085    8.4952 C.ar    1  UNL1        0.0369
     11 C          63.1233   85.9594   12.2903 C.2     1  UNL1        0.2492
     12 O          63.4247   86.4335   13.6811 O.2     1  UNL1       -0.2699
     13 N          63.5719   84.5980   11.8483 N.am    1  UNL1       -0.2709
     14 C          63.2705   84.1239   10.4575 C.3     1  UNL1        0.1258
     15 C          63.7191   82.7625   10.0155 C.3     1  UNL1        0.1637
     16 O          64.4691   81.8753   10.9643 O.3     1  UNL1       -0.3501
     17 C          64.7705   82.3494   12.3551 C.3     1  UNL1        0.1637
     18 C          64.3220   83.7107   12.7971 C.3     1  UNL1        0.1258
     19 O          58.4529   89.7945    6.5258 O.3     1  UNL1       -0.4791
     20 N          60.6948   92.2564    3.4988 N.3     1  UNL1       -0.2737
     21 C          59.2256   92.4772    3.7052 C.3     1  UNL1        0.0758
     22 C          58.4783   91.6566    4.7142 C.3     1  UNL1        0.0609
     23 C          59.2002   90.6151    5.5168 C.3     1  UNL1        0.1687
     24 C          60.6695   90.3943    5.3104 C.3     1  UNL1        0.0609
     25 C          61.4168   91.2149    4.3014 C.3     1  UNL1        0.0758
     26 C          62.9122   92.8593    2.2866 C.3     1  UNL1        0.0173
     27 C          61.4421   93.0770    2.4898 C.3     1  UNL1        0.0576
     28 C          60.7193   94.1155    1.6841 C.3     1  UNL1        0.0173
@<TRIPOS>BOND
     1    26    27    1
     2    27    28    1
     3    27    20    1
     4    20    21    1
     5    21    22    1
     6    22    23    1
     7    23    19    1
     8    19     1    1
     9     1     2   ar
    10     2     3   ar
    11     3     4   ar
    12     4     5   ar
    13     5     6   ar
    14     6    11    1
    15    11    12    2
    16    11    13   am
    17    13    14    1
    18    14    15    1
    19    15    16    1
    20    16    17    1
    21    17    18    1
    22     6     7   ar
    23     7     8   ar
    24     8     9   ar
    25     9    10   ar
    26    23    24    1
    27    24    25    1
    28    25    20    1
    29    10     1   ar
    30     9     4   ar
    31    18    13    1
@<TRIPOS>MOLECULE
*****
 28 31 0 0 0
SMALL
GASTEIGER

@<TRIPOS>ATOM
      1 C          63.9886   90.0516   13.8134 C.ar    1  UNL1        0.1384
      2 C          64.3700   89.5271   15.1659 C.ar    1  UNL1        0.0369
      3 C          64.2560   88.0609   15.4611 C.ar    1  UNL1        0.0031
      4 C          63.7606   87.1192   14.4039 C.ar    1  UNL1        0.0003
      5 C          63.6467   85.6529   14.6992 C.ar    1  UNL1        0.0045
      6 C          63.1512   84.7112   13.6420 C.ar    1  UNL1        0.0536
      7 C          62.7698   85.2358   12.2894 C.ar    1  UNL1        0.0045
      8 C          62.8837   86.7020   11.9941 C.ar    1  UNL1        0.0002
      9 C          63.3792   87.6437   13.0514 C.ar    1  UNL1        0.0030
     10 C          63.4931   89.1099   12.7561 C.ar    1  UNL1        0.0369
     11 C          63.0373   83.2450   13.9373 C.2     1  UNL1        0.2492
     12 O          62.9237   82.7723   15.3563 O.2     1  UNL1       -0.2699
     13 N          63.0369   82.2514   12.8135 N.am    1  UNL1       -0.2709
     14 C          63.1505   82.7241   11.3944 C.3     1  UNL1        0.1258
     15 C          63.1501   81.7306   10.2707 C.3     1  UNL1        0.1637
     16 O          63.0361   80.2644   10.5660 O.3     1  UNL1       -0.3501
     17 C          62.9225   79.7917   11.9850 C.3     1  UNL1        0.1637
     18 C          62.9229   80.7852   13.1088 C.3     1  UNL1        0.1258
     19 O          64.1025   91.5178   13.5180 O.3     1  UNL1       -0.4791
     20 N          66.9921   92.9643   10.3863 N.3     1  UNL1       -0.2737
     21 C          67.4913   92.5834   11.7485 C.3     1  UNL1        0.0758
     22 C          66.5280   92.1012   12.7925 C.3     1  UNL1        0.0609
     23 C          65.0657   92.0000   12.4741 C.3     1  UNL1        0.1687
     24 C          64.5666   92.3809   11.1118 C.3     1  UNL1        0.0609
     25 C          65.5298   92.8631   10.0679 C.3     1  UNL1        0.0758
     26 C          67.8979   94.8685    8.8685 C.3     1  UNL1        0.0173
     27 C          67.9553   93.4465    9.3424 C.3     1  UNL1        0.0576
     28 C          68.9761   92.5066    8.7724 C.3     1  UNL1        0.0173
@<TRIPOS>BOND
     1    26    27    1
     2    27    28    1
     3    27    20    1
     4    20    21    1
     5    21    22    1
     6    22    23    1
     7    23    19    1
     8    19     1    1
     9     1     2   ar
    10     2     3   ar
    11     3     4   ar
    12     4     5   ar
    13     5     6   ar
    14     6    11    1
    15    11    12    2
    16    11    13   am
    17    13    14    1
    18    14    15    1
    19    15    16    1
    20    16    17    1
    21    17    18    1
    22     6     7   ar
    23     7     8   ar
    24     8     9   ar
    25     9    10   ar
    26    23    24    1
    27    24    25    1
    28    25    20    1
    29    10     1   ar
    30     9     4   ar
    31    18    13    1
@<TRIPOS>MOLECULE
*****
 28 31 0 0 0
SMALL
GASTEIGER

@<TRIPOS>ATOM
      1 C          63.6666   89.6465   12.7328 C.ar    1  UNL1        0.1384
      2 C          62.8004   89.0650   11.6551 C.ar    1  UNL1        0.0369
      3 C          62.4719   87.6015   11.6649 C.ar    1  UNL1        0.0031
      4 C          63.0097   86.7194   12.7524 C.ar    1  UNL1        0.0003
      5 C          62.6812   85.2558   12.7622 C.ar    1  UNL1        0.0045
      6 C          63.2190   84.3737   13.8497 C.ar    1  UNL1        0.0536
      7 C          64.0853   84.9552   14.9275 C.ar    1  UNL1        0.0045
      8 C          64.4137   86.4187   14.9177 C.ar    1  UNL1        0.0002
      9 C          63.8759   87.3008   13.8301 C.ar    1  UNL1        0.0030
     10 C          64.2044   88.7644   13.8203 C.ar    1  UNL1        0.0369
     11 C          62.8905   82.9102   13.8595 C.2     1  UNL1        0.2492
     12 O          62.4103   82.2577   15.1219 O.2     1  UNL1       -0.2699
     13 N          63.0423   82.0990   12.6069 N.am    1  UNL1       -0.2709
     14 C          63.5225   82.7515   11.3444 C.3     1  UNL1        0.1258
     15 C          63.6743   81.9404   10.0918 C.3     1  UNL1        0.1637
     16 O          63.3458   80.4769   10.1016 O.3     1  UNL1       -0.3501
     17 C          62.8656   79.8244   11.3641 C.3     1  UNL1        0.1637
     18 C          62.7138   80.6355   12.6167 C.3     1  UNL1        0.1258
     19 O          63.9951   91.1101   12.7230 O.3     1  UNL1       -0.4791
     20 N          67.5165   92.6414   15.0692 N.3     1  UNL1       -0.2737
     21 C          67.6350   92.4340   13.5884 C.3     1  UNL1        0.0758
     22 C          66.4612   91.9235   12.8063 C.3     1  UNL1        0.0609
     23 C          65.1689   91.6205   13.5051 C.3     1  UNL1        0.1687
     24 C          65.0505   91.8280   14.9860 C.3     1  UNL1        0.0609
     25 C          66.2243   92.3384   15.7680 C.3     1  UNL1        0.0758
     26 C          69.5911   92.1889   16.5664 C.3     1  UNL1        0.0173
     27 C          68.6903   93.1518   15.8513 C.3     1  UNL1        0.0576
     28 C          68.9634   94.6253   15.9182 C.3     1  UNL1        0.0173
@<TRIPOS>BOND
     1    26    27    1
     2    27    28    1
     3    27    20    1
     4    20    21    1
     5    21    22    1
     6    22    23    1
     7    23    19    1
     8    19     1    1
     9     1     2   ar
    10     2     3   ar
    11     3     4   ar
    12     4     5   ar
    13     5     6   ar
    14     6    11    1
    15    11    12    2
    16    11    13   am
    17    13    14    1
    18    14    15    1
    19    15    16    1
    20    16    17    1
    21    17    18    1
    22     6     7   ar
    23     7     8   ar
    24     8     9   ar
    25     9    10   ar
    26    23    24    1
    27    24    25    1
    28    25    20    1
    29    10     1   ar
    30     9     4   ar
    31    18    13    1
