@<TRIPOS>MOLECULE
*****
 17 18 0 0 0
SMALL
GASTEIGER

@<TRIPOS>ATOM
      1 C          63.6817   83.7371   10.6935 C.ar    1  UNL1        0.1386
      2 C          62.7239   84.4556   11.5971 C.ar    1  UNL1        0.0384
      3 C          61.8464   85.5414   11.0486 C.ar    1  UNL1        0.0207
      4 C          61.9266   85.9089    9.5966 C.ar    1  UNL1        0.0653
      5 C          62.8844   85.1905    8.6930 C.ar    1  UNL1        0.0207
      6 C          63.7619   84.1046    9.2415 C.ar    1  UNL1        0.0384
      7 N          61.0491   86.9948    9.0481 N.ar    1  UNL1       -0.2923
      8 C          59.9081   86.8080    8.0924 C.ar    1  UNL1        0.1019
      9 C          59.3123   88.1558    7.8127 C.ar    1  UNL1        0.1192
     10 N          60.0850   89.1757    8.5955 N.ar    1  UNL1       -0.2290
     11 C          61.1584   88.4581    9.3590 C.ar    1  UNL1        0.1247
     12 C          62.1645   89.0925   10.2730 C.3     1  UNL1        0.0722
     13 O          64.5592   82.6513   11.2420 O.3     1  UNL1       -0.4755
     14 C          64.3165   82.1161   12.6220 C.3     1  UNL1        0.2054
     15 C          63.1363   81.2285   12.8854 C.3     1  UNL1        0.0473
     16 C          60.8652   80.8134   14.0770 C.3     1  UNL1        0.0001
     17 C          62.1231   81.6157   13.9216 C.3     1  UNL1        0.0038
@<TRIPOS>BOND
     1    16    17    1
     2    17    15    1
     3    15    14    1
     4    14    13    1
     5    13     1    1
     6     1     2   ar
     7     2     3   ar
     8     3     4   ar
     9     4     7    1
    10     7     8   ar
    11     8     9   ar
    12     9    10   ar
    13    10    11   ar
    14    11    12    1
    15     4     5   ar
    16     5     6   ar
    17     6     1   ar
    18    11     7   ar
@<TRIPOS>MOLECULE
*****
 17 18 0 0 0
SMALL
GASTEIGER

@<TRIPOS>ATOM
      1 C          63.6116   83.6076   10.6660 C.ar    1  UNL1        0.1386
      2 C          63.7018   84.1136    9.2569 C.ar    1  UNL1        0.0384
      3 C          62.9515   85.3484    8.8539 C.ar    1  UNL1        0.0207
      4 C          62.1110   86.0771    9.8601 C.ar    1  UNL1        0.0653
      5 C          62.0208   85.5711   11.2693 C.ar    1  UNL1        0.0207
      6 C          62.7711   84.3363   11.6722 C.ar    1  UNL1        0.0384
      7 N          61.3607   87.3119    9.4572 N.ar    1  UNL1       -0.2923
      8 C          61.5926   88.6964    9.9859 C.ar    1  UNL1        0.1019
      9 C          60.6220   89.6192    9.3102 C.ar    1  UNL1        0.1192
     10 N          59.7903   88.8050    8.3640 N.ar    1  UNL1       -0.2290
     11 C          60.2469   87.3791    8.4548 C.ar    1  UNL1        0.1247
     12 C          59.6877   86.2232    7.6794 C.3     1  UNL1        0.0722
     13 O          64.3619   82.3728   11.0690 O.3     1  UNL1       -0.4755
     14 C          64.0434   81.6917   12.3669 C.3     1  UNL1        0.2054
     15 C          62.9102   80.7118   12.4414 C.3     1  UNL1        0.0473
     16 C          61.9028   82.0164   14.4497 C.3     1  UNL1        0.0001
     17 C          61.8864   80.8305   13.5314 C.3     1  UNL1        0.0038
@<TRIPOS>BOND
     1    16    17    1
     2    17    15    1
     3    15    14    1
     4    14    13    1
     5    13     1    1
     6     1     2   ar
     7     2     3   ar
     8     3     4   ar
     9     4     7    1
    10     7     8   ar
    11     8     9   ar
    12     9    10   ar
    13    10    11   ar
    14    11    12    1
    15     4     5   ar
    16     5     6   ar
    17     6     1   ar
    18    11     7   ar
@<TRIPOS>MOLECULE
*****
 17 18 0 0 0
SMALL
GASTEIGER

@<TRIPOS>ATOM
      1 C          64.2776   90.8091   13.5373 C.ar    1  UNL1        0.1386
      2 C          65.4608   91.5655   14.0643 C.ar    1  UNL1        0.0384
      3 C          66.1951   92.5241   13.1744 C.ar    1  UNL1        0.0207
      4 C          65.7461   92.7263   11.7575 C.ar    1  UNL1        0.0653
      5 C          64.5629   91.9699   11.2306 C.ar    1  UNL1        0.0207
      6 C          63.8286   91.0112   12.1205 C.ar    1  UNL1        0.0384
      7 N          66.4803   93.6849   10.8676 N.ar    1  UNL1       -0.2923
      8 C          66.2324   95.1609   10.7668 C.ar    1  UNL1        0.1019
      9 C          67.1902   95.7241    9.7591 C.ar    1  UNL1        0.1192
     10 N          68.0302   94.5962    9.2372 N.ar    1  UNL1       -0.2290
     11 C          67.5914   93.3360    9.9223 C.ar    1  UNL1        0.1247
     12 C          68.1634   91.9671    9.7009 C.3     1  UNL1        0.0722
     13 O          63.5434   89.8504   14.4272 O.3     1  UNL1       -0.4755
     14 C          63.6037   90.0137   15.9171 C.3     1  UNL1        0.2054
     15 C          62.9064   89.0291   16.8083 C.3     1  UNL1        0.0473
     16 C          62.7101   86.6122   17.7412 C.3     1  UNL1        0.0001
     17 C          63.2269   87.5672   16.7064 C.3     1  UNL1        0.0038
@<TRIPOS>BOND
     1    16    17    1
     2    17    15    1
     3    15    14    1
     4    14    13    1
     5    13     1    1
     6     1     2   ar
     7     2     3   ar
     8     3     4   ar
     9     4     7    1
    10     7     8   ar
    11     8     9   ar
    12     9    10   ar
    13    10    11   ar
    14    11    12    1
    15     4     5   ar
    16     5     6   ar
    17     6     1   ar
    18    11     7   ar
@<TRIPOS>MOLECULE
*****
 17 18 0 0 0
SMALL
GASTEIGER

@<TRIPOS>ATOM
      1 C          63.0627   90.2602   11.9212 C.ar    1  UNL1        0.1386
      2 C          64.0422   90.8340   12.9017 C.ar    1  UNL1        0.0384
      3 C          64.9934   91.9101   12.4692 C.ar    1  UNL1        0.0207
      4 C          64.9652   92.4125   11.0561 C.ar    1  UNL1        0.0653
      5 C          63.9858   91.8387   10.0756 C.ar    1  UNL1        0.0207
      6 C          63.0345   90.7626   10.5082 C.ar    1  UNL1        0.0384
      7 N          65.9164   93.4886   10.6236 N.ar    1  UNL1       -0.2923
      8 C          65.6618   94.9658   10.6809 C.ar    1  UNL1        0.1019
      9 C          66.8773   95.6667   10.1505 C.ar    1  UNL1        0.1192
     10 N          67.8832   94.6227    9.7654 N.ar    1  UNL1       -0.2290
     11 C          67.2893   93.2766   10.0578 C.ar    1  UNL1        0.1247
     12 C          67.9521   91.9513    9.8252 C.3     1  UNL1        0.0722
     13 O          62.1115   89.1841   12.3538 O.3     1  UNL1       -0.4755
     14 C          61.3939   88.3600   11.3263 C.3     1  UNL1        0.2054
     15 C          62.0542   87.1452   10.7446 C.3     1  UNL1        0.0473
     16 C          62.7032   85.7112    8.6776 C.3     1  UNL1        0.0001
     17 C          61.9887   86.8907    9.2677 C.3     1  UNL1        0.0038
@<TRIPOS>BOND
     1    16    17    1
     2    17    15    1
     3    15    14    1
     4    14    13    1
     5    13     1    1
     6     1     2   ar
     7     2     3   ar
     8     3     4   ar
     9     4     7    1
    10     7     8   ar
    11     8     9   ar
    12     9    10   ar
    13    10    11   ar
    14    11    12    1
    15     4     5   ar
    16     5     6   ar
    17     6     1   ar
    18    11     7   ar
@<TRIPOS>MOLECULE
*****
 17 18 0 0 0
SMALL
GASTEIGER

@<TRIPOS>ATOM
      1 C          63.3786   84.1886   11.2204 C.ar    1  UNL1        0.1386
      2 C          63.5467   84.3571    9.7394 C.ar    1  UNL1        0.0384
      3 C          62.6871   85.3342    8.9934 C.ar    1  UNL1        0.0207
      4 C          61.6596   86.1428    9.7283 C.ar    1  UNL1        0.0653
      5 C          61.4915   85.9743   11.2093 C.ar    1  UNL1        0.0207
      6 C          62.3511   84.9973   11.9553 C.ar    1  UNL1        0.0384
      7 N          60.8000   87.1198    8.9823 N.ar    1  UNL1       -0.2923
      8 C          59.7507   86.7753    7.9674 C.ar    1  UNL1        0.1019
      9 C          59.1410   88.0555    7.4780 C.ar    1  UNL1        0.1192
     10 N          59.8136   89.1913    8.1906 N.ar    1  UNL1       -0.2290
     11 C          60.8389   88.6130    9.1202 C.ar    1  UNL1        0.1247
     12 C          61.7442   89.3912   10.0284 C.3     1  UNL1        0.0722
     13 O          64.2382   83.2116   11.9664 O.3     1  UNL1       -0.4755
     14 C          64.2647   83.2286   13.4660 C.3     1  UNL1        0.2054
     15 C          65.0261   84.2988   14.1906 C.3     1  UNL1        0.0473
     16 C          64.4744   86.7716   14.7657 C.3     1  UNL1        0.0001
     17 C          64.2929   85.3057   15.0265 C.3     1  UNL1        0.0038
@<TRIPOS>BOND
     1    16    17    1
     2    17    15    1
     3    15    14    1
     4    14    13    1
     5    13     1    1
     6     1     2   ar
     7     2     3   ar
     8     3     4   ar
     9     4     7    1
    10     7     8   ar
    11     8     9   ar
    12     9    10   ar
    13    10    11   ar
    14    11    12    1
    15     4     5   ar
    16     5     6   ar
    17     6     1   ar
    18    11     7   ar
@<TRIPOS>MOLECULE
*****
 17 18 0 0 0
SMALL
GASTEIGER

@<TRIPOS>ATOM
      1 C          61.9609   85.6207    9.1313 C.ar    1  UNL1        0.1386
      2 C          61.3433   86.1080   10.4084 C.ar    1  UNL1        0.0384
      3 C          61.8223   85.5726   11.7252 C.ar    1  UNL1        0.0207
      4 C          62.9189   84.5500   11.7649 C.ar    1  UNL1        0.0653
      5 C          63.5365   84.0627   10.4878 C.ar    1  UNL1        0.0207
      6 C          63.0575   84.5980    9.1710 C.ar    1  UNL1        0.0384
      7 N          63.3980   84.0147   13.0817 N.ar    1  UNL1       -0.2923
      8 C          64.2860   84.7321   14.0547 C.ar    1  UNL1        0.1019
      9 C          64.5099   83.8287   15.2311 C.ar    1  UNL1        0.1192
     10 N          63.7603   82.5530   14.9851 N.ar    1  UNL1       -0.2290
     11 C          63.0731   82.6679   13.6567 C.ar    1  UNL1        0.1247
     12 C          62.2122   81.6199   13.0159 C.3     1  UNL1        0.0722
     13 O          61.4819   86.1560    7.8145 O.3     1  UNL1       -0.4755
     14 C          60.0419   86.0051    7.4227 C.3     1  UNL1        0.2054
     15 C          59.0647   87.1036    7.7197 C.3     1  UNL1        0.0473
     16 C          60.1397   89.1769    8.8582 C.3     1  UNL1        0.0001
     17 C          59.5055   88.5362    7.6594 C.3     1  UNL1        0.0038
@<TRIPOS>BOND
     1    16    17    1
     2    17    15    1
     3    15    14    1
     4    14    13    1
     5    13     1    1
     6     1     2   ar
     7     2     3   ar
     8     3     4   ar
     9     4     7    1
    10     7     8   ar
    11     8     9   ar
    12     9    10   ar
    13    10    11   ar
    14    11    12    1
    15     4     5   ar
    16     5     6   ar
    17     6     1   ar
    18    11     7   ar
@<TRIPOS>MOLECULE
*****
 17 18 0 0 0
SMALL
GASTEIGER

@<TRIPOS>ATOM
      1 C          63.5264   83.9562   11.0753 C.ar    1  UNL1        0.1386
      2 C          63.6591   84.1985    9.6010 C.ar    1  UNL1        0.0384
      3 C          62.8000   85.2289    8.9299 C.ar    1  UNL1        0.0207
      4 C          61.8084   86.0171    9.7332 C.ar    1  UNL1        0.0653
      5 C          61.6757   85.7748   11.2075 C.ar    1  UNL1        0.0207
      6 C          62.5347   84.7444   11.8786 C.ar    1  UNL1        0.0384
      7 N          60.9493   87.0475    9.0621 N.ar    1  UNL1       -0.2923
      8 C          59.8551   86.7747    8.0731 C.ar    1  UNL1        0.1019
      9 C          59.2632   88.0902    7.6620 C.ar    1  UNL1        0.1192
     10 N          59.9916   89.1761    8.3970 N.ar    1  UNL1       -0.2290
     11 C          61.0337   88.5317    9.2623 C.ar    1  UNL1        0.1247
     12 C          61.9919   89.2460   10.1687 C.3     1  UNL1        0.0722
     13 O          64.3854   82.9258   11.7464 O.3     1  UNL1       -0.4755
     14 C          63.7508   81.8149   12.5294 C.3     1  UNL1        0.2054
     15 C          62.9119   80.7876   11.8288 C.3     1  UNL1        0.0473
     16 C          62.8191   79.2250    9.7551 C.3     1  UNL1        0.0001
     17 C          63.0587   80.5809   10.3503 C.3     1  UNL1        0.0038
@<TRIPOS>BOND
     1    16    17    1
     2    17    15    1
     3    15    14    1
     4    14    13    1
     5    13     1    1
     6     1     2   ar
     7     2     3   ar
     8     3     4   ar
     9     4     7    1
    10     7     8   ar
    11     8     9   ar
    12     9    10   ar
    13    10    11   ar
    14    11    12    1
    15     4     5   ar
    16     5     6   ar
    17     6     1   ar
    18    11     7   ar
@<TRIPOS>MOLECULE
*****
 17 18 0 0 0
SMALL
GASTEIGER

@<TRIPOS>ATOM
      1 C          63.1533   89.7610   12.5260 C.ar    1  UNL1        0.1386
      2 C          63.7859   89.2245   13.7758 C.ar    1  UNL1        0.0384
      3 C          64.9204   89.9650   14.4196 C.ar    1  UNL1        0.0207
      4 C          65.4223   91.2420   13.8137 C.ar    1  UNL1        0.0653
      5 C          64.7898   91.7786   12.5639 C.ar    1  UNL1        0.0207
      6 C          63.6552   91.0380   11.9201 C.ar    1  UNL1        0.0384
      7 N          66.5569   91.9826   14.4575 N.ar    1  UNL1       -0.2923
      8 C          66.5180   92.6691   15.7906 C.ar    1  UNL1        0.1019
      9 C          67.8666   93.2774   16.0382 C.ar    1  UNL1        0.1192
     10 N          68.7389   92.9668   14.8582 N.ar    1  UNL1       -0.2290
     11 C          67.9295   92.1666   13.8812 C.ar    1  UNL1        0.1247
     12 C          68.4086   91.6424   12.5600 C.3     1  UNL1        0.0722
     13 O          62.0188   89.0205   11.8822 O.3     1  UNL1       -0.4755
     14 C          62.1643   88.4924   10.4859 C.3     1  UNL1        0.2054
     15 C          61.4453   87.2404   10.0788 C.3     1  UNL1        0.0473
     16 C          62.5698   85.5691   11.7196 C.3     1  UNL1        0.0001
     17 C          61.3404   86.0907   11.0365 C.3     1  UNL1        0.0038
@<TRIPOS>BOND
     1    16    17    1
     2    17    15    1
     3    15    14    1
     4    14    13    1
     5    13     1    1
     6     1     2   ar
     7     2     3   ar
     8     3     4   ar
     9     4     7    1
    10     7     8   ar
    11     8     9   ar
    12     9    10   ar
    13    10    11   ar
    14    11    12    1
    15     4     5   ar
    16     5     6   ar
    17     6     1   ar
    18    11     7   ar
@<TRIPOS>MOLECULE
*****
 17 18 0 0 0
SMALL
GASTEIGER

@<TRIPOS>ATOM
      1 C          64.7334   91.7579   12.6979 C.ar    1  UNL1        0.1386
      2 C          64.1848   90.5968   13.4729 C.ar    1  UNL1        0.0384
      3 C          63.2232   89.6475   12.8216 C.ar    1  UNL1        0.0207
      4 C          62.8102   89.8595   11.3952 C.ar    1  UNL1        0.0653
      5 C          63.3588   91.0206   10.6203 C.ar    1  UNL1        0.0207
      6 C          64.3204   91.9699   11.2716 C.ar    1  UNL1        0.0384
      7 N          61.8485   88.9103   10.7439 N.ar    1  UNL1       -0.2923
      8 C          62.2130   87.7524    9.8627 C.ar    1  UNL1        0.1019
      9 C          60.9433   87.0788    9.4336 C.ar    1  UNL1        0.1192
     10 N          59.7941   87.8203   10.0496 N.ar    1  UNL1       -0.2290
     11 C          60.3536   88.9522   10.8594 C.ar    1  UNL1        0.1247
     12 C          59.5578   89.9507   11.6466 C.3     1  UNL1        0.0722
     13 O          65.6951   92.7072   13.3493 O.3     1  UNL1       -0.4755
     14 C          66.1203   92.4862   14.7706 C.3     1  UNL1        0.2054
     15 C          67.3874   91.7402   15.0670 C.3     1  UNL1        0.0473
     16 C          68.8538   93.7261   15.8770 C.3     1  UNL1        0.0001
     17 C          68.3849   92.3097   16.0319 C.3     1  UNL1        0.0038
@<TRIPOS>BOND
     1    16    17    1
     2    17    15    1
     3    15    14    1
     4    14    13    1
     5    13     1    1
     6     1     2   ar
     7     2     3   ar
     8     3     4   ar
     9     4     7    1
    10     7     8   ar
    11     8     9   ar
    12     9    10   ar
    13    10    11   ar
    14    11    12    1
    15     4     5   ar
    16     5     6   ar
    17     6     1   ar
    18    11     7   ar
