@<TRIPOS>MOLECULE
*****
 30 34 0 0 0
SMALL
GASTEIGER

@<TRIPOS>ATOM
      1 C          62.4525   85.6429    8.1547 C.ar    1  UNL1        0.1773
      2 N          62.0807   86.4335    9.3739 N.ar    1  UNL1       -0.2108
      3 C          62.4550   85.9308   10.7367 C.ar    1  UNL1        0.1327
      4 C          63.2012   84.6376   10.8802 C.ar    1  UNL1        0.0629
      5 C          63.7015   83.8957   12.0841 C.ar    1  UNL1        0.0024
      6 C          64.3826   82.6466   11.6088 C.ar    1  UNL1        0.0964
      7 N          64.3032   82.6164   10.1113 N.ar    1  UNL1       -0.2272
      8 C          63.5730   83.8469    9.6610 C.ar    1  UNL1        0.1440
      9 N          63.1986   84.3496    8.2982 N.ar    1  UNL1       -0.3214
     10 H          63.4426   83.8307    7.4979 H       1  UNL1        0.1689
     11 C          63.5478   84.3272   13.5124 C.3     1  UNL1        0.0290
     12 C          62.2534   84.0904   14.2323 C.3     1  UNL1        0.0366
     13 C          62.0997   84.5219   15.6606 C.3     1  UNL1        0.1425
     14 O          63.2403   85.1903   16.3691 O.3     1  UNL1       -0.3538
     15 C          64.5348   85.4272   15.6492 C.3     1  UNL1        0.1425
     16 C          64.6885   84.9956   14.2209 C.3     1  UNL1        0.0366
     17 N          62.0832   86.7215   11.9560 N.pl3   1  UNL1       -0.3196
     18 H          61.3457   86.4182   12.5334 H       1  UNL1        0.1481
     19 C          62.8350   87.9743   12.2956 C.3     1  UNL1        0.0704
     20 C          63.6820   88.0288   13.5324 C.3     1  UNL1        0.0209
     21 C          64.4337   89.2816   13.8720 C.3     1  UNL1        0.0177
     22 C          64.3386   90.4799   12.9747 C.3     1  UNL1        0.0578
     23 C          63.4916   90.4254   11.7379 C.3     1  UNL1        0.0177
     24 C          62.7398   89.1726   11.3983 C.3     1  UNL1        0.0209
     25 N          65.0904   91.7327   13.3143 N.3     1  UNL1       -0.2698
     26 C          65.3597   92.7570   12.2520 C.3     1  UNL1        0.1046
     27 C          66.1115   94.0097   12.5916 C.3     1  UNL1        0.1595
     28 O          66.5940   94.2383   13.9934 O.3     1  UNL1       -0.3508
     29 C          66.3246   93.2141   15.0556 C.3     1  UNL1        0.1595
     30 C          65.5728   91.9612   14.7161 C.3     1  UNL1        0.1046
@<TRIPOS>BOND
     1     1     2   ar
     2     2     3   ar
     3     3    17    1
     4    19    17    1
     5    19    20    1
     6    20    21    1
     7    21    22    1
     8    22    25    1
     9    25    26    1
    10    26    27    1
    11    27    28    1
    12    28    29    1
    13    29    30    1
    14    22    23    1
    15    23    24    1
    16     3     4   ar
    17     4     5   ar
    18     5    11    1
    19    11    12    1
    20    12    13    1
    21    13    14    1
    22    14    15    1
    23    15    16    1
    24     5     6   ar
    25     6     7   ar
    26     7     8   ar
    27     8     9   ar
    28     9     1   ar
    29    24    19    1
    30     8     4    1
    31    30    25    1
    32    16    11    1
    33    17    18    1
    34     9    10    1
@<TRIPOS>MOLECULE
*****
 30 34 0 0 0
SMALL
GASTEIGER

@<TRIPOS>ATOM
      1 C          66.0518   93.6426   10.5281 C.ar    1  UNL1        0.1773
      2 N          64.7541   92.9778   10.8798 N.ar    1  UNL1       -0.2108
      3 C          64.6491   92.1498   12.1262 C.ar    1  UNL1        0.1327
      4 C          65.8419   91.9866   13.0208 C.ar    1  UNL1        0.0629
      5 C          66.0383   91.2370   14.3051 C.ar    1  UNL1        0.0024
      6 C          67.4574   91.4385   14.7472 C.ar    1  UNL1        0.0964
      7 N          68.1382   92.3126   13.7361 N.ar    1  UNL1       -0.2272
      8 C          67.1397   92.6514   12.6691 C.ar    1  UNL1        0.1440
      9 N          67.2447   93.4794   11.4228 N.ar    1  UNL1       -0.3214
     10 H          68.0965   93.9157   11.1919 H       1  UNL1        0.1689
     11 C          64.9981   90.4279   15.0216 C.3     1  UNL1        0.0290
     12 C          64.8279   88.9724   14.7011 C.3     1  UNL1        0.0366
     13 C          63.7877   88.1634   15.4176 C.3     1  UNL1        0.1425
     14 O          62.9176   88.8096   16.4545 O.3     1  UNL1       -0.3538
     15 C          63.0878   90.2651   16.7750 C.3     1  UNL1        0.1425
     16 C          64.1280   91.0742   16.0585 C.3     1  UNL1        0.0366
     17 N          63.3512   91.4850   12.4779 N.pl3   1  UNL1       -0.3196
     18 H          62.8793   91.7334   13.3054 H       1  UNL1        0.1481
     19 C          62.7724   90.4418   11.5687 C.3     1  UNL1        0.0704
     20 C          62.9553   88.9868   11.8843 C.3     1  UNL1        0.0209
     21 C          62.3765   87.9436   10.9751 C.3     1  UNL1        0.0177
     22 C          61.6147   88.3554    9.7503 C.3     1  UNL1        0.0578
     23 C          61.4318   89.8103    9.4347 C.3     1  UNL1        0.0177
     24 C          62.0106   90.8536   10.3439 C.3     1  UNL1        0.0209
     25 N          61.0359   87.3122    8.8411 N.3     1  UNL1       -0.2698
     26 C          61.8905   86.1757    8.3636 C.3     1  UNL1        0.1046
     27 C          61.3117   85.1325    7.4544 C.3     1  UNL1        0.1595
     28 O          59.8782   85.2257    7.0227 O.3     1  UNL1       -0.3508
     29 C          59.0235   86.3621    7.5002 C.3     1  UNL1        0.1595
     30 C          59.6024   87.4054    8.4094 C.3     1  UNL1        0.1046
@<TRIPOS>BOND
     1     1     2   ar
     2     2     3   ar
     3     3    17    1
     4    19    17    1
     5    19    20    1
     6    20    21    1
     7    21    22    1
     8    22    25    1
     9    25    26    1
    10    26    27    1
    11    27    28    1
    12    28    29    1
    13    29    30    1
    14    22    23    1
    15    23    24    1
    16     3     4   ar
    17     4     5   ar
    18     5    11    1
    19    11    12    1
    20    12    13    1
    21    13    14    1
    22    14    15    1
    23    15    16    1
    24     5     6   ar
    25     6     7   ar
    26     7     8   ar
    27     8     9   ar
    28     9     1   ar
    29    24    19    1
    30     8     4    1
    31    30    25    1
    32    16    11    1
    33    17    18    1
    34     9    10    1
@<TRIPOS>MOLECULE
*****
 30 34 0 0 0
SMALL
GASTEIGER

@<TRIPOS>ATOM
      1 C          64.9210   86.2571   14.9050 C.ar    1  UNL1        0.1773
      2 N          64.3671   87.6386   14.7190 N.ar    1  UNL1       -0.2108
      3 C          63.3965   87.9143   13.6091 C.ar    1  UNL1        0.1327
      4 C          62.9798   86.8085   12.6852 C.ar    1  UNL1        0.0629
      5 C          62.0469   86.7796   11.5109 C.ar    1  UNL1        0.0024
      6 C          62.0242   85.3802   10.9713 C.ar    1  UNL1        0.0964
      7 N          62.9431   84.5442   11.8119 N.ar    1  UNL1       -0.2272
      8 C          63.5337   85.4270   12.8712 C.ar    1  UNL1        0.1440
      9 N          64.5043   85.1513   13.9812 N.ar    1  UNL1       -0.3214
     10 H          64.8678   84.2446   14.1033 H       1  UNL1        0.1689
     11 C          61.2726   87.9454   10.9712 C.3     1  UNL1        0.0290
     12 C          61.4789   88.3912    9.5539 C.3     1  UNL1        0.0366
     13 C          60.7046   89.5570    9.0141 C.3     1  UNL1        0.1425
     14 O          59.7240   90.2770    9.8915 O.3     1  UNL1       -0.3538
     15 C          59.5177   89.8312   11.3088 C.3     1  UNL1        0.1425
     16 C          60.2920   88.6654   11.8486 C.3     1  UNL1        0.0366
     17 N          62.8426   89.2958   13.4230 N.pl3   1  UNL1       -0.3196
     18 H          61.9342   89.5084   13.7374 H       1  UNL1        0.1481
     19 C          63.6728   90.3535   12.7581 C.3     1  UNL1        0.0704
     20 C          63.3954   90.7407   11.3357 C.3     1  UNL1        0.0209
     21 C          64.2256   91.7983   10.6708 C.3     1  UNL1        0.0177
     22 C          65.3332   92.4688   11.4282 C.3     1  UNL1        0.0578
     23 C          65.6106   92.0816   12.8505 C.3     1  UNL1        0.0177
     24 C          64.7804   91.0239   13.5155 C.3     1  UNL1        0.0209
     25 N          66.1634   93.5264   10.7633 N.3     1  UNL1       -0.2698
     26 C          65.9369   94.9729   11.0894 C.3     1  UNL1        0.1046
     27 C          66.7671   96.0306   10.4245 C.3     1  UNL1        0.1595
     28 O          67.8238   95.6417    9.4335 O.3     1  UNL1       -0.3508
     29 C          68.0503   94.1953    9.1073 C.3     1  UNL1        0.1595
     30 C          67.2201   93.1376    9.7722 C.3     1  UNL1        0.1046
@<TRIPOS>BOND
     1     1     2   ar
     2     2     3   ar
     3     3    17    1
     4    19    17    1
     5    19    20    1
     6    20    21    1
     7    21    22    1
     8    22    25    1
     9    25    26    1
    10    26    27    1
    11    27    28    1
    12    28    29    1
    13    29    30    1
    14    22    23    1
    15    23    24    1
    16     3     4   ar
    17     4     5   ar
    18     5    11    1
    19    11    12    1
    20    12    13    1
    21    13    14    1
    22    14    15    1
    23    15    16    1
    24     5     6   ar
    25     6     7   ar
    26     7     8   ar
    27     8     9   ar
    28     9     1   ar
    29    24    19    1
    30     8     4    1
    31    30    25    1
    32    16    11    1
    33    17    18    1
    34     9    10    1
@<TRIPOS>MOLECULE
*****
 30 34 0 0 0
SMALL
GASTEIGER

@<TRIPOS>ATOM
      1 C          64.0794   84.6080   15.9325 C.ar    1  UNL1        0.1773
      2 N          63.5372   85.7529   15.1293 N.ar    1  UNL1       -0.2108
      3 C          63.2354   85.5699   13.6714 C.ar    1  UNL1        0.1327
      4 C          63.4759   84.2419   13.0167 C.ar    1  UNL1        0.0629
      5 C          63.2746   83.7660   11.6085 C.ar    1  UNL1        0.0024
      6 C          63.6925   82.3270   11.5414 C.ar    1  UNL1        0.0964
      7 N          64.1520   81.9135   12.9080 N.ar    1  UNL1       -0.2272
      8 C          64.0181   83.0970   13.8199 C.ar    1  UNL1        0.1440
      9 N          64.3198   83.2800   15.2778 N.ar    1  UNL1       -0.3214
     10 H          64.6757   82.5286   15.8049 H       1  UNL1        0.1689
     11 C          62.7480   84.5854   10.4678 C.3     1  UNL1        0.0290
     12 C          63.4077   84.5098    9.1227 C.3     1  UNL1        0.0366
     13 C          62.8811   85.3291    7.9820 C.3     1  UNL1        0.1425
     14 O          61.6948   86.2241    8.1862 O.3     1  UNL1       -0.3538
     15 C          61.0351   86.2997    9.5312 C.3     1  UNL1        0.1425
     16 C          61.5617   85.4803   10.6719 C.3     1  UNL1        0.0366
     17 N          62.6932   86.7149   12.8683 N.pl3   1  UNL1       -0.3196
     18 H          61.9041   86.5835   12.2944 H       1  UNL1        0.1481
     19 C          63.3532   88.0600   12.9395 C.3     1  UNL1        0.0704
     20 C          64.2448   88.3975   14.0976 C.3     1  UNL1        0.0209
     21 C          64.9048   89.7426   14.1689 C.3     1  UNL1        0.0177
     22 C          64.6732   90.7502   13.0821 C.3     1  UNL1        0.0578
     23 C          63.7816   90.4127   11.9240 C.3     1  UNL1        0.0177
     24 C          63.1216   89.0676   11.8527 C.3     1  UNL1        0.0209
     25 N          65.3332   92.0953   13.1534 N.3     1  UNL1       -0.2698
     26 C          65.3643   92.9805   11.9428 C.3     1  UNL1        0.1046
     27 C          66.0243   94.3256   12.0140 C.3     1  UNL1        0.1595
     28 O          66.6531   94.7855   13.2958 O.3     1  UNL1       -0.3508
     29 C          66.6220   93.9004   14.5064 C.3     1  UNL1        0.1595
     30 C          65.9620   92.5552   14.4352 C.3     1  UNL1        0.1046
@<TRIPOS>BOND
     1     1     2   ar
     2     2     3   ar
     3     3    17    1
     4    19    17    1
     5    19    20    1
     6    20    21    1
     7    21    22    1
     8    22    25    1
     9    25    26    1
    10    26    27    1
    11    27    28    1
    12    28    29    1
    13    29    30    1
    14    22    23    1
    15    23    24    1
    16     3     4   ar
    17     4     5   ar
    18     5    11    1
    19    11    12    1
    20    12    13    1
    21    13    14    1
    22    14    15    1
    23    15    16    1
    24     5     6   ar
    25     6     7   ar
    26     7     8   ar
    27     8     9   ar
    28     9     1   ar
    29    24    19    1
    30     8     4    1
    31    30    25    1
    32    16    11    1
    33    17    18    1
    34     9    10    1
@<TRIPOS>MOLECULE
*****
 30 34 0 0 0
SMALL
GASTEIGER

@<TRIPOS>ATOM
      1 C          60.0435   90.3133    9.6488 C.ar    1  UNL1        0.1773
      2 N          60.9045   89.8783   10.7974 N.ar    1  UNL1       -0.2108
      3 C          61.4507   88.4819   10.8386 C.ar    1  UNL1        0.1327
      4 C          61.1360   87.5205    9.7311 C.ar    1  UNL1        0.0629
      5 C          61.5291   86.0914    9.5005 C.ar    1  UNL1        0.0024
      6 C          60.9111   85.6432    8.2093 C.ar    1  UNL1        0.0964
      7 N          60.1360   86.7952    7.6419 N.ar    1  UNL1       -0.2272
      8 C          60.2750   87.9555    8.5825 C.ar    1  UNL1        0.1440
      9 N          59.7287   89.3519    8.5413 N.ar    1  UNL1       -0.3214
     10 H          59.1636   89.6374    7.7874 H       1  UNL1        0.1689
     11 C          62.3892   85.2571   10.4027 C.3     1  UNL1        0.0290
     12 C          62.1835   85.3026   11.8879 C.3     1  UNL1        0.0366
     13 C          63.0437   84.4682   12.7901 C.3     1  UNL1        0.1425
     14 O          64.1096   83.5884   12.2072 O.3     1  UNL1       -0.3538
     15 C          64.3153   83.5429   10.7221 C.3     1  UNL1        0.1425
     16 C          63.4552   84.3773    9.8199 C.3     1  UNL1        0.0366
     17 N          62.3117   88.0469   11.9873 N.pl3   1  UNL1       -0.3196
     18 H          62.2289   87.1340   12.3465 H       1  UNL1        0.1481
     19 C          63.2988   89.0029   12.5888 C.3     1  UNL1        0.0704
     20 C          63.9994   88.6516   13.8678 C.3     1  UNL1        0.0209
     21 C          64.9865   89.6075   14.4692 C.3     1  UNL1        0.0177
     22 C          65.2731   90.9147   13.7918 C.3     1  UNL1        0.0578
     23 C          64.5725   91.2661   12.5128 C.3     1  UNL1        0.0177
     24 C          63.5854   90.3101   11.9113 C.3     1  UNL1        0.0209
     25 N          66.2602   91.8707   14.3932 N.3     1  UNL1       -0.2698
     26 C          66.2496   93.3145   13.9864 C.3     1  UNL1        0.1046
     27 C          67.2367   94.2704   14.5879 C.3     1  UNL1        0.1595
     28 O          68.2344   93.7826   15.5961 O.3     1  UNL1       -0.3508
     29 C          68.2450   92.3389   16.0029 C.3     1  UNL1        0.1595
     30 C          67.2579   91.3829   15.4015 C.3     1  UNL1        0.1046
@<TRIPOS>BOND
     1     1     2   ar
     2     2     3   ar
     3     3    17    1
     4    19    17    1
     5    19    20    1
     6    20    21    1
     7    21    22    1
     8    22    25    1
     9    25    26    1
    10    26    27    1
    11    27    28    1
    12    28    29    1
    13    29    30    1
    14    22    23    1
    15    23    24    1
    16     3     4   ar
    17     4     5   ar
    18     5    11    1
    19    11    12    1
    20    12    13    1
    21    13    14    1
    22    14    15    1
    23    15    16    1
    24     5     6   ar
    25     6     7   ar
    26     7     8   ar
    27     8     9   ar
    28     9     1   ar
    29    24    19    1
    30     8     4    1
    31    30    25    1
    32    16    11    1
    33    17    18    1
    34     9    10    1
@<TRIPOS>MOLECULE
*****
 30 34 0 0 0
SMALL
GASTEIGER

@<TRIPOS>ATOM
      1 C          63.3870   90.6302   15.9950 C.ar    1  UNL1        0.1773
      2 N          63.2170   90.8030   14.5147 N.ar    1  UNL1       -0.2108
      3 C          64.2104   91.6126   13.7351 C.ar    1  UNL1        0.1327
      4 C          65.3737   92.2495   14.4358 C.ar    1  UNL1        0.0629
      5 C          66.5054   93.0972   13.9351 C.ar    1  UNL1        0.0024
      6 C          67.3748   93.4483   15.1059 C.ar    1  UNL1        0.0964
      7 N          66.7805   92.8177   16.3302 N.ar    1  UNL1       -0.2272
      8 C          65.5437   92.0768   15.9161 C.ar    1  UNL1        0.1440
      9 N          64.5504   91.2671   16.6957 N.ar    1  UNL1       -0.3214
     10 H          64.6620   91.1537   17.6672 H       1  UNL1        0.1689
     11 C          66.7284   93.5195   12.5132 C.3     1  UNL1        0.0290
     12 C          66.3635   94.9076   12.0770 C.3     1  UNL1        0.0366
     13 C          66.5866   95.3299   10.6551 C.3     1  UNL1        0.1425
     14 O          67.1745   94.3643    9.6693 O.3     1  UNL1       -0.3538
     15 C          67.5394   92.9763   10.1054 C.3     1  UNL1        0.1425
     16 C          67.3164   92.5539   11.5273 C.3     1  UNL1        0.0366
     17 N          64.0403   91.7853   12.2548 N.pl3   1  UNL1       -0.3196
     18 H          64.4042   92.5832   11.8073 H       1  UNL1        0.1481
     19 C          63.3158   90.7425   11.4564 C.3     1  UNL1        0.0704
     20 C          62.7279   91.0939   10.1218 C.3     1  UNL1        0.0209
     21 C          62.0034   90.0511    9.3234 C.3     1  UNL1        0.0177
     22 C          61.8668   88.6568    9.8594 C.3     1  UNL1        0.0578
     23 C          62.4546   88.3054   11.1939 C.3     1  UNL1        0.0177
     24 C          63.1791   89.3482   11.9924 C.3     1  UNL1        0.0209
     25 N          61.1423   87.6140    9.0610 N.3     1  UNL1       -0.2698
     26 C          61.8603   86.3722    8.6223 C.3     1  UNL1        0.1046
     27 C          61.1358   85.3293    7.8238 C.3     1  UNL1        0.1595
     28 O          59.6932   85.5282    7.4641 O.3     1  UNL1       -0.3508
     29 C          58.9752   86.7699    7.9028 C.3     1  UNL1        0.1595
     30 C          59.6997   87.8128    8.7013 C.3     1  UNL1        0.1046
@<TRIPOS>BOND
     1     1     2   ar
     2     2     3   ar
     3     3    17    1
     4    19    17    1
     5    19    20    1
     6    20    21    1
     7    21    22    1
     8    22    25    1
     9    25    26    1
    10    26    27    1
    11    27    28    1
    12    28    29    1
    13    29    30    1
    14    22    23    1
    15    23    24    1
    16     3     4   ar
    17     4     5   ar
    18     5    11    1
    19    11    12    1
    20    12    13    1
    21    13    14    1
    22    14    15    1
    23    15    16    1
    24     5     6   ar
    25     6     7   ar
    26     7     8   ar
    27     8     9   ar
    28     9     1   ar
    29    24    19    1
    30     8     4    1
    31    30    25    1
    32    16    11    1
    33    17    18    1
    34     9    10    1
@<TRIPOS>MOLECULE
*****
 30 34 0 0 0
SMALL
GASTEIGER

@<TRIPOS>ATOM
      1 C          66.8434   91.9824   14.6336 C.ar    1  UNL1        0.1773
      2 N          65.6364   91.1170   14.8440 N.ar    1  UNL1       -0.2108
      3 C          64.6464   90.9277   13.7331 C.ar    1  UNL1        0.1327
      4 C          64.8634   91.6037   12.4118 C.ar    1  UNL1        0.0629
      5 C          64.0660   91.6036   11.1413 C.ar    1  UNL1        0.0024
      6 C          64.7802   92.4689   10.1457 C.ar    1  UNL1        0.0964
      7 N          66.0189   93.0039   10.8009 N.ar    1  UNL1       -0.2272
      8 C          66.0704   92.4691   12.2014 C.ar    1  UNL1        0.1440
      9 N          67.0604   92.6584   13.3123 N.ar    1  UNL1       -0.3214
     10 H          67.8525   93.2264   13.1742 H       1  UNL1        0.1689
     11 C          62.7802   90.8674   10.9075 C.3     1  UNL1        0.0290
     12 C          62.6994   89.8208    9.8361 C.3     1  UNL1        0.0366
     13 C          61.4135   89.0846    9.6023 C.3     1  UNL1        0.1425
     14 O          60.2085   89.3949   10.4398 O.3     1  UNL1       -0.3538
     15 C          60.2894   90.4416   11.5113 C.3     1  UNL1        0.1425
     16 C          61.5752   91.1778   11.7451 C.3     1  UNL1        0.0366
     17 N          63.4394   90.0622   13.9435 N.pl3   1  UNL1       -0.3196
     18 H          62.5746   90.4716   14.1752 H       1  UNL1        0.1481
     19 C          63.5501   88.5732   13.8009 C.3     1  UNL1        0.0704
     20 C          64.1750   87.7593   14.8951 C.3     1  UNL1        0.0209
     21 C          64.2857   86.2702   14.7525 C.3     1  UNL1        0.0177
     22 C          63.7716   85.5950   13.5157 C.3     1  UNL1        0.0578
     23 C          63.1468   86.4088   12.4215 C.3     1  UNL1        0.0177
     24 C          63.0360   87.8979   12.5641 C.3     1  UNL1        0.0209
     25 N          63.8823   84.1059   13.3730 N.3     1  UNL1       -0.2698
     26 C          64.4017   83.5112   12.0976 C.3     1  UNL1        0.1046
     27 C          64.5125   82.0221   11.9550 C.3     1  UNL1        0.1595
     28 O          64.1038   81.1277   13.0877 O.3     1  UNL1       -0.3508
     29 C          63.5844   81.7224   14.3631 C.3     1  UNL1        0.1595
     30 C          63.4737   83.2115   14.5057 C.3     1  UNL1        0.1046
@<TRIPOS>BOND
     1     1     2   ar
     2     2     3   ar
     3     3    17    1
     4    19    17    1
     5    19    20    1
     6    20    21    1
     7    21    22    1
     8    22    25    1
     9    25    26    1
    10    26    27    1
    11    27    28    1
    12    28    29    1
    13    29    30    1
    14    22    23    1
    15    23    24    1
    16     3     4   ar
    17     4     5   ar
    18     5    11    1
    19    11    12    1
    20    12    13    1
    21    13    14    1
    22    14    15    1
    23    15    16    1
    24     5     6   ar
    25     6     7   ar
    26     7     8   ar
    27     8     9   ar
    28     9     1   ar
    29    24    19    1
    30     8     4    1
    31    30    25    1
    32    16    11    1
    33    17    18    1
    34     9    10    1
@<TRIPOS>MOLECULE
*****
 30 34 0 0 0
SMALL
GASTEIGER

@<TRIPOS>ATOM
      1 C          64.4381   83.3589   11.5308 C.ar    1  UNL1        0.1773
      2 N          63.8438   84.4127   12.4175 N.ar    1  UNL1       -0.2108
      3 C          62.9677   85.4797   11.8310 C.ar    1  UNL1        0.1327
      4 C          62.6859   85.4929   10.3578 C.ar    1  UNL1        0.0629
      5 C          61.8665   86.4116    9.5008 C.ar    1  UNL1        0.0024
      6 C          61.9543   85.9256    8.0844 C.ar    1  UNL1        0.0964
      7 N          62.8281   84.7065    8.0660 N.ar    1  UNL1       -0.2272
      8 C          63.2802   84.4391    9.4711 C.ar    1  UNL1        0.1440
      9 N          64.1563   83.3721   10.0576 N.ar    1  UNL1       -0.3214
     10 H          64.5464   82.6805    9.4756 H       1  UNL1        0.1689
     11 C          61.0947   87.6065    9.9767 C.3     1  UNL1        0.0290
     12 C          60.1238   87.4689   11.1118 C.3     1  UNL1        0.0366
     13 C          59.3520   88.6638   11.5876 C.3     1  UNL1        0.1425
     14 O          59.5510   89.9964   10.9285 O.3     1  UNL1       -0.3538
     15 C          60.5220   90.1341    9.7934 C.3     1  UNL1        0.1425
     16 C          61.2937   88.9391    9.3176 C.3     1  UNL1        0.0366
     17 N          62.3734   86.5335   12.7178 N.pl3   1  UNL1       -0.3196
     18 H          61.4755   86.4055   13.1009 H       1  UNL1        0.1481
     19 C          63.1470   87.7823   13.0209 C.3     1  UNL1        0.0704
     20 C          64.0345   87.8402   14.2289 C.3     1  UNL1        0.0209
     21 C          64.8081   89.0890   14.5320 C.3     1  UNL1        0.0177
     22 C          64.6944   90.2800   13.6272 C.3     1  UNL1        0.0578
     23 C          63.8070   90.2221   12.4193 C.3     1  UNL1        0.0177
     24 C          63.0333   88.9733   12.1161 C.3     1  UNL1        0.0209
     25 N          65.4680   91.5288   13.9303 N.3     1  UNL1       -0.2698
     26 C          66.0490   91.7379   15.2974 C.3     1  UNL1        0.1046
     27 C          66.8227   92.9867   15.6005 C.3     1  UNL1        0.1595
     28 O          67.0153   94.0264   14.5366 O.3     1  UNL1       -0.3508
     29 C          66.4344   93.8173   13.1696 C.3     1  UNL1        0.1595
     30 C          65.6607   92.5685   12.8665 C.3     1  UNL1        0.1046
@<TRIPOS>BOND
     1     1     2   ar
     2     2     3   ar
     3     3    17    1
     4    19    17    1
     5    19    20    1
     6    20    21    1
     7    21    22    1
     8    22    25    1
     9    25    26    1
    10    26    27    1
    11    27    28    1
    12    28    29    1
    13    29    30    1
    14    22    23    1
    15    23    24    1
    16     3     4   ar
    17     4     5   ar
    18     5    11    1
    19    11    12    1
    20    12    13    1
    21    13    14    1
    22    14    15    1
    23    15    16    1
    24     5     6   ar
    25     6     7   ar
    26     7     8   ar
    27     8     9   ar
    28     9     1   ar
    29    24    19    1
    30     8     4    1
    31    30    25    1
    32    16    11    1
    33    17    18    1
    34     9    10    1
@<TRIPOS>MOLECULE
*****
 30 34 0 0 0
SMALL
GASTEIGER

@<TRIPOS>ATOM
      1 C          62.6239   89.4193   16.6138 C.ar    1  UNL1        0.1773
      2 N          63.0633   89.1200   15.2112 N.ar    1  UNL1       -0.2108
      3 C          64.1117   89.9695   14.5562 C.ar    1  UNL1        0.1327
      4 C          64.7208   91.1184   15.3038 C.ar    1  UNL1        0.0629
      5 C          65.7667   92.1233   14.9212 C.ar    1  UNL1        0.0024
      6 C          65.9737   93.0437   16.0874 C.ar    1  UNL1        0.0964
      7 N          65.0558   92.6077   17.1907 N.ar    1  UNL1       -0.2272
      8 C          64.2815   91.4178   16.7064 C.ar    1  UNL1        0.1440
      9 N          63.2330   90.5682   17.3614 N.ar    1  UNL1       -0.3214
     10 H          62.9447   90.7647   18.2820 H       1  UNL1        0.1689
     11 C          66.4802   92.1951   13.6038 C.3     1  UNL1        0.0290
     12 C          67.8952   91.7105   13.4898 C.3     1  UNL1        0.0366
     13 C          68.6087   91.7823   12.1723 C.3     1  UNL1        0.1425
     14 O          67.9074   92.3387   10.9688 O.3     1  UNL1       -0.3538
     15 C          66.4924   92.8234   11.0828 C.3     1  UNL1        0.1425
     16 C          65.7789   92.7516   12.4003 C.3     1  UNL1        0.0366
     17 N          64.5510   89.6701   13.1535 N.pl3   1  UNL1       -0.3196
     18 H          65.5069   89.7013   12.9198 H       1  UNL1        0.1481
     19 C          63.5340   89.3232   12.1070 C.3     1  UNL1        0.0704
     20 C          63.0254   90.3828   11.1749 C.3     1  UNL1        0.0209
     21 C          62.0084   90.0359   10.1284 C.3     1  UNL1        0.0177
     22 C          61.4999   88.6294   10.0138 C.3     1  UNL1        0.0578
     23 C          62.0085   87.5697   10.9457 C.3     1  UNL1        0.0177
     24 C          63.0256   87.9167   11.9924 C.3     1  UNL1        0.0209
     25 N          60.4829   88.2824    8.9673 N.3     1  UNL1       -0.2698
     26 C          59.9901   89.3373    8.0215 C.3     1  UNL1        0.1046
     27 C          58.9731   88.9904    6.9750 C.3     1  UNL1        0.1595
     28 O          58.4489   87.5886    6.8741 O.3     1  UNL1       -0.3508
     29 C          58.9417   86.5337    7.8198 C.3     1  UNL1        0.1595
     30 C          59.9587   86.8806    8.8664 C.3     1  UNL1        0.1046
@<TRIPOS>BOND
     1     1     2   ar
     2     2     3   ar
     3     3    17    1
     4    19    17    1
     5    19    20    1
     6    20    21    1
     7    21    22    1
     8    22    25    1
     9    25    26    1
    10    26    27    1
    11    27    28    1
    12    28    29    1
    13    29    30    1
    14    22    23    1
    15    23    24    1
    16     3     4   ar
    17     4     5   ar
    18     5    11    1
    19    11    12    1
    20    12    13    1
    21    13    14    1
    22    14    15    1
    23    15    16    1
    24     5     6   ar
    25     6     7   ar
    26     7     8   ar
    27     8     9   ar
    28     9     1   ar
    29    24    19    1
    30     8     4    1
    31    30    25    1
    32    16    11    1
    33    17    18    1
    34     9    10    1
