@<TRIPOS>MOLECULE
*****
 30 33 0 0 0
SMALL
GASTEIGER

@<TRIPOS>ATOM
      1 C          61.9098   86.7445   10.9166 C.ar    1  UNL1        0.1105
      2 C          62.3786   88.1664   11.0076 C.ar    1  UNL1        0.0200
      3 C          61.8409   89.1956   10.0581 C.ar    1  UNL1        0.0160
      4 C          60.8345   88.8028    9.0175 C.ar    1  UNL1        0.0504
      5 C          60.3657   87.3809    8.9265 C.ar    1  UNL1        0.0160
      6 C          60.9033   86.3518    9.8760 C.ar    1  UNL1        0.0200
      7 N          60.2968   89.8321    8.0679 N.am    1  UNL1       -0.2839
      8 C          59.5717   89.4018    6.8273 C.2     1  UNL1        0.2260
      9 O          59.3842   87.9423    6.5363 O.2     1  UNL1       -0.2748
     10 H          60.4199   90.7900    8.2589 H       1  UNL1        0.1549
     11 C          59.0341   90.4311    5.8777 C.3     1  UNL1        0.0812
     12 C          57.8832   91.2335    5.3470 C.3     1  UNL1        0.0143
     13 C          59.2537   91.4114    4.7638 C.3     1  UNL1        0.0330
     14 C          60.1718   92.0800    3.7840 C.ar    1  UNL1       -0.0029
     15 C          61.6172   91.6843    3.7201 C.ar    1  UNL1       -0.0011
     16 C          62.5353   92.3529    2.7403 C.ar    1  UNL1        0.0204
     17 C          62.0079   93.4174    1.8244 C.ar    1  UNL1        0.0989
     18 N          60.5625   93.8132    1.8883 N.ar    1  UNL1       -0.2426
     19 C          59.6444   93.1444    2.8682 C.ar    1  UNL1        0.0946
     20 S          62.4474   85.7153   11.8662 S.O2    1  UNL1        0.0305
     21 O          61.8276   84.6283   11.0390 O.2     1  UNL1       -0.1641
     22 O          63.0672   86.8023   12.6934 O.2     1  UNL1       -0.1641
     23 N          63.5113   82.5582   13.8578 N.ar    1  UNL1       -0.2481
     24 C          62.8139   83.2007   12.6956 C.ar    1  UNL1        0.1154
     25 C          62.9850   84.6861   12.8158 C.ar    1  UNL1        0.1497
     26 C          63.7882   84.9616   14.0523 C.ar    1  UNL1        0.1404
     27 N          64.1135   83.6465   14.6963 N.ar    1  UNL1       -0.1662
     28 C          63.5923   81.0860   14.1332 C.3     1  UNL1        0.1276
     29 C          61.0572   80.5237   14.0479 C.3     1  UNL1        0.0021
     30 C          62.4762   80.1802   13.7042 C.3     1  UNL1        0.0264
@<TRIPOS>BOND
     1    29    30    1
     2    30    28    1
     3    28    23    1
     4    23    24   ar
     5    24    25   ar
     6    25    20    1
     7    20    21    2
     8    20    22    2
     9    20     1    1
    10     1     2   ar
    11     2     3   ar
    12     3     4   ar
    13     4     7    1
    14     7     8   am
    15     8     9    2
    16    11     8    1
    17    11    12    1
    18    12    13    1
    19    13    14    1
    20    14    15   ar
    21    15    16   ar
    22    16    17   ar
    23    17    18   ar
    24    18    19   ar
    25     4     5   ar
    26     5     6   ar
    27    25    26   ar
    28    26    27   ar
    29    27    23   ar
    30     6     1   ar
    31    13    11    1
    32    19    14   ar
    33     7    10    1
@<TRIPOS>MOLECULE
*****
 30 33 0 0 0
SMALL
GASTEIGER

@<TRIPOS>ATOM
      1 C          65.3424   92.0077   12.9678 C.ar    1  UNL1        0.1105
      2 C          66.0843   91.5700   14.1957 C.ar    1  UNL1        0.0200
      3 C          65.6601   90.3306   14.9263 C.ar    1  UNL1        0.0160
      4 C          64.4940   89.5289   14.4290 C.ar    1  UNL1        0.0504
      5 C          63.7521   89.9665   13.2010 C.ar    1  UNL1        0.0160
      6 C          64.1762   91.2060   12.4704 C.ar    1  UNL1        0.0200
      7 N          64.0698   88.2894   15.1597 N.am    1  UNL1       -0.2839
      8 C          63.7259   87.0472   14.3925 C.2     1  UNL1        0.2260
      9 O          63.8060   87.0444   12.8947 O.2     1  UNL1       -0.2748
     10 H          64.0172   88.2912   16.1428 H       1  UNL1        0.1549
     11 C          63.3017   85.8077   15.1232 C.3     1  UNL1        0.0812
     12 C          62.8706   85.1299   16.3900 C.3     1  UNL1        0.0143
     13 C          62.9981   84.3387   15.1220 C.3     1  UNL1        0.0330
     14 C          62.8963   83.0339   14.3892 C.ar    1  UNL1       -0.0029
     15 C          61.7030   82.1488   14.5957 C.ar    1  UNL1       -0.0011
     16 C          61.6013   80.8440   13.8629 C.ar    1  UNL1        0.0204
     17 C          62.6929   80.4242   12.9236 C.ar    1  UNL1        0.0989
     18 N          63.8862   81.3093   12.7171 N.ar    1  UNL1       -0.2426
     19 C          63.9879   82.6142   13.4499 C.ar    1  UNL1        0.0946
     20 S          65.7666   93.2472   12.2371 S.O2    1  UNL1        0.0305
     21 O          66.3613   93.7898   13.5027 O.2     1  UNL1       -0.1641
     22 O          65.1718   92.7046   10.9715 O.2     1  UNL1       -0.1641
     23 N          66.9626   95.9880    9.7626 N.ar    1  UNL1       -0.2481
     24 C          66.6329   94.5584   10.0748 C.ar    1  UNL1        0.1154
     25 C          66.1907   94.4866   11.5064 C.ar    1  UNL1        0.1497
     26 C          66.2471   95.8718   12.0789 C.ar    1  UNL1        0.1404
     27 N          66.7241   96.7998   11.0013 N.ar    1  UNL1       -0.1662
     28 C          67.4458   96.5135    8.4435 C.3     1  UNL1        0.1276
     29 C          65.0137   96.8546    7.5960 C.3     1  UNL1        0.0021
     30 C          66.4790   96.7048    7.3127 C.3     1  UNL1        0.0264
@<TRIPOS>BOND
     1    29    30    1
     2    30    28    1
     3    28    23    1
     4    23    24   ar
     5    24    25   ar
     6    25    20    1
     7    20    21    2
     8    20    22    2
     9    20     1    1
    10     1     2   ar
    11     2     3   ar
    12     3     4   ar
    13     4     7    1
    14     7     8   am
    15     8     9    2
    16    11     8    1
    17    11    12    1
    18    12    13    1
    19    13    14    1
    20    14    15   ar
    21    15    16   ar
    22    16    17   ar
    23    17    18   ar
    24    18    19   ar
    25     4     5   ar
    26     5     6   ar
    27    25    26   ar
    28    26    27   ar
    29    27    23   ar
    30     6     1   ar
    31    13    11    1
    32    19    14   ar
    33     7    10    1
@<TRIPOS>MOLECULE
*****
 30 33 0 0 0
SMALL
GASTEIGER

@<TRIPOS>ATOM
      1 C          61.0668   86.8411    9.6757 C.ar    1  UNL1        0.1105
      2 C          61.0401   88.3263    9.8838 C.ar    1  UNL1        0.0200
      3 C          60.3233   89.2080    8.9047 C.ar    1  UNL1        0.0160
      4 C          59.6330   88.6045    7.7175 C.ar    1  UNL1        0.0504
      5 C          59.6597   87.1193    7.5095 C.ar    1  UNL1        0.0160
      6 C          60.3766   86.2376    8.4885 C.ar    1  UNL1        0.0200
      7 N          58.9161   89.4863    6.7384 N.am    1  UNL1       -0.2839
      8 C          59.6961   90.4078    5.8483 C.2     1  UNL1        0.2260
      9 O          61.1929   90.4476    5.9372 O.2     1  UNL1       -0.2748
     10 H          57.9337   89.4602    6.6801 H       1  UNL1        0.1549
     11 C          58.9792   91.2896    4.8692 C.3     1  UNL1        0.0812
     12 C          57.7167   91.9460    4.3945 C.3     1  UNL1        0.0143
     13 C          59.0000   92.1605    3.6480 C.3     1  UNL1        0.0330
     14 C          59.7529   92.7871    2.5121 C.ar    1  UNL1       -0.0029
     15 C          61.2263   93.0390    2.6372 C.ar    1  UNL1       -0.0011
     16 C          61.9792   93.6656    1.5013 C.ar    1  UNL1        0.0204
     17 C          61.2587   94.0404    0.2401 C.ar    1  UNL1        0.0989
     18 N          59.7853   93.7885    0.1149 N.ar    1  UNL1       -0.2426
     19 C          59.0324   93.1619    1.2510 C.ar    1  UNL1        0.0946
     20 S          61.7837   85.9593   10.6548 S.O2    1  UNL1        0.0305
     21 O          61.0199   86.5894   11.7816 O.2     1  UNL1       -0.1641
     22 O          62.5474   85.3292    9.5281 O.2     1  UNL1       -0.1641
     23 N          63.4317   83.1200   12.7255 N.ar    1  UNL1       -0.2481
     24 C          62.6437   83.5875   11.5379 C.ar    1  UNL1        0.1154
     25 C          62.5005   85.0776   11.6339 C.ar    1  UNL1        0.1497
     26 C          63.2002   85.5310   12.8808 C.ar    1  UNL1        0.1404
     27 N          63.7757   84.3213   13.5554 N.ar    1  UNL1       -0.1662
     28 C          63.8096   81.7006   13.0297 C.3     1  UNL1        0.1276
     29 C          61.5113   81.0079   14.0237 C.3     1  UNL1        0.0021
     30 C          62.7414   80.6678   13.2355 C.3     1  UNL1        0.0264
@<TRIPOS>BOND
     1    29    30    1
     2    30    28    1
     3    28    23    1
     4    23    24   ar
     5    24    25   ar
     6    25    20    1
     7    20    21    2
     8    20    22    2
     9    20     1    1
    10     1     2   ar
    11     2     3   ar
    12     3     4   ar
    13     4     7    1
    14     7     8   am
    15     8     9    2
    16    11     8    1
    17    11    12    1
    18    12    13    1
    19    13    14    1
    20    14    15   ar
    21    15    16   ar
    22    16    17   ar
    23    17    18   ar
    24    18    19   ar
    25     4     5   ar
    26     5     6   ar
    27    25    26   ar
    28    26    27   ar
    29    27    23   ar
    30     6     1   ar
    31    13    11    1
    32    19    14   ar
    33     7    10    1
@<TRIPOS>MOLECULE
*****
 30 33 0 0 0
SMALL
GASTEIGER

@<TRIPOS>ATOM
      1 C          63.7171   87.7112   13.5852 C.ar    1  UNL1        0.1105
      2 C          64.4579   88.5250   14.6045 C.ar    1  UNL1        0.0200
      3 C          64.7207   89.9806   14.3549 C.ar    1  UNL1        0.0160
      4 C          64.2427   90.6223   13.0862 C.ar    1  UNL1        0.0504
      5 C          63.5019   89.8084   12.0670 C.ar    1  UNL1        0.0160
      6 C          63.2391   88.3529   12.3165 C.ar    1  UNL1        0.0200
      7 N          64.5055   92.0779   12.8367 N.am    1  UNL1       -0.2839
      8 C          65.9155   92.5867   12.7812 C.2     1  UNL1        0.2260
      9 O          67.0627   91.6399   12.9753 O.2     1  UNL1       -0.2748
     10 H          63.7526   92.6993   12.7093 H       1  UNL1        0.1549
     11 C          66.1783   94.0423   12.5317 C.3     1  UNL1        0.0812
     12 C          66.5358   95.4048   13.0473 C.3     1  UNL1        0.0143
     13 C          66.2761   95.2009   11.5841 C.3     1  UNL1        0.0330
     14 C          66.1826   95.7521   10.1922 C.ar    1  UNL1       -0.0029
     15 C          67.3918   95.7569    9.3046 C.ar    1  UNL1       -0.0011
     16 C          67.2983   96.3081    7.9127 C.ar    1  UNL1        0.0204
     17 C          65.9955   96.8545    7.4083 C.ar    1  UNL1        0.0989
     18 N          64.7863   96.8497    8.2959 N.ar    1  UNL1       -0.2426
     19 C          64.8799   96.2985    9.6879 C.ar    1  UNL1        0.0946
     20 S          63.4543   86.2556   13.8347 S.O2    1  UNL1        0.0305
     21 O          64.0776   86.3759   15.1937 O.2     1  UNL1       -0.1641
     22 O          62.8309   86.1353   12.4758 O.2     1  UNL1       -0.1641
     23 N          62.8150   82.4286   13.7302 N.ar    1  UNL1       -0.2481
     24 C          63.0824   83.7316   13.0370 C.ar    1  UNL1        0.1154
     25 C          63.1914   84.8000   14.0842 C.ar    1  UNL1        0.1497
     26 C          62.9915   84.1573   15.4247 C.ar    1  UNL1        0.1404
     27 N          62.7589   82.6917   15.2059 N.ar    1  UNL1       -0.1662
     28 C          62.6354   81.0964   13.0647 C.3     1  UNL1        0.1276
     29 C          60.3923   80.3443   14.1383 C.3     1  UNL1        0.0021
     30 C          61.7997   80.0372   13.7201 C.3     1  UNL1        0.0264
@<TRIPOS>BOND
     1    29    30    1
     2    30    28    1
     3    28    23    1
     4    23    24   ar
     5    24    25   ar
     6    25    20    1
     7    20    21    2
     8    20    22    2
     9    20     1    1
    10     1     2   ar
    11     2     3   ar
    12     3     4   ar
    13     4     7    1
    14     7     8   am
    15     8     9    2
    16    11     8    1
    17    11    12    1
    18    12    13    1
    19    13    14    1
    20    14    15   ar
    21    15    16   ar
    22    16    17   ar
    23    17    18   ar
    24    18    19   ar
    25     4     5   ar
    26     5     6   ar
    27    25    26   ar
    28    26    27   ar
    29    27    23   ar
    30     6     1   ar
    31    13    11    1
    32    19    14   ar
    33     7    10    1
@<TRIPOS>MOLECULE
*****
 30 33 0 0 0
SMALL
GASTEIGER

@<TRIPOS>ATOM
      1 C          61.0634   86.8125    9.5622 C.ar    1  UNL1        0.1105
      2 C          61.0115   88.2892    9.8204 C.ar    1  UNL1        0.0200
      3 C          60.2847   89.1919    8.8681 C.ar    1  UNL1        0.0160
      4 C          59.6099   88.6180    7.6576 C.ar    1  UNL1        0.0504
      5 C          59.6619   87.1413    7.3994 C.ar    1  UNL1        0.0160
      6 C          60.3887   86.2386    8.3517 C.ar    1  UNL1        0.0200
      7 N          58.8832   89.5208    6.7053 N.am    1  UNL1       -0.2839
      8 C          59.6561   90.3963    5.7641 C.2     1  UNL1        0.2260
      9 O          61.1558   90.3691    5.7751 O.2     1  UNL1       -0.2748
     10 H          57.8989   89.5387    6.6981 H       1  UNL1        0.1549
     11 C          58.9293   91.2992    4.8118 C.3     1  UNL1        0.0812
     12 C          57.6638   91.9716    4.3690 C.3     1  UNL1        0.0143
     13 C          58.9361   92.1904    3.6053 C.3     1  UNL1        0.0330
     14 C          59.6746   92.8311    2.4678 C.ar    1  UNL1       -0.0029
     15 C          61.1319   93.1573    2.6086 C.ar    1  UNL1       -0.0011
     16 C          61.8704   93.7981    1.4711 C.ar    1  UNL1        0.0204
     17 C          61.1516   94.1128    0.1927 C.ar    1  UNL1        0.0989
     18 N          59.6943   93.7866    0.0518 N.ar    1  UNL1       -0.2426
     19 C          58.9558   93.1458    1.1894 C.ar    1  UNL1        0.0946
     20 S          61.7902   85.9097   10.5145 S.O2    1  UNL1        0.0305
     21 O          61.1176   86.5880   11.6709 O.2     1  UNL1       -0.1641
     22 O          62.4629   85.2314    9.3580 O.2     1  UNL1       -0.1641
     23 N          63.5293   84.1143   13.4839 N.ar    1  UNL1       -0.2481
     24 C          62.7726   85.2799   12.9193 C.ar    1  UNL1        0.1154
     25 C          62.5170   85.0069   11.4667 C.ar    1  UNL1        0.1497
     26 C          63.1158   83.6726   11.1334 C.ar    1  UNL1        0.1404
     27 N          63.7414   83.1210   12.3801 N.ar    1  UNL1       -0.1662
     28 C          63.9926   83.9678   14.9030 C.3     1  UNL1        0.1276
     29 C          63.4281   85.9069   16.5374 C.3     1  UNL1        0.0021
     30 C          64.4199   85.1769   15.6811 C.3     1  UNL1        0.0264
@<TRIPOS>BOND
     1    29    30    1
     2    30    28    1
     3    28    23    1
     4    23    24   ar
     5    24    25   ar
     6    25    20    1
     7    20    21    2
     8    20    22    2
     9    20     1    1
    10     1     2   ar
    11     2     3   ar
    12     3     4   ar
    13     4     7    1
    14     7     8   am
    15     8     9    2
    16    11     8    1
    17    11    12    1
    18    12    13    1
    19    13    14    1
    20    14    15   ar
    21    15    16   ar
    22    16    17   ar
    23    17    18   ar
    24    18    19   ar
    25     4     5   ar
    26     5     6   ar
    27    25    26   ar
    28    26    27   ar
    29    27    23   ar
    30     6     1   ar
    31    13    11    1
    32    19    14   ar
    33     7    10    1
@<TRIPOS>MOLECULE
*****
 30 33 0 0 0
SMALL
GASTEIGER

@<TRIPOS>ATOM
      1 C          62.5931   94.3220    0.3452 C.ar    1  UNL1        0.1105
      2 C          62.5828   92.8301    0.5001 C.ar    1  UNL1        0.0200
      3 C          61.6173   92.1811    1.4469 C.ar    1  UNL1        0.0160
      4 C          60.6621   93.0241    2.2389 C.ar    1  UNL1        0.0504
      5 C          60.6725   94.5160    2.0839 C.ar    1  UNL1        0.0160
      6 C          61.6380   95.1649    1.1371 C.ar    1  UNL1        0.0200
      7 N          59.6966   92.3750    3.1858 N.am    1  UNL1       -0.2839
      8 C          60.2066   91.5231    4.3100 C.2     1  UNL1        0.2260
      9 O          61.6822   91.3202    4.4875 O.2     1  UNL1       -0.2748
     10 H          58.7281   92.5082    3.0693 H       1  UNL1        0.1549
     11 C          59.2410   90.8741    5.2569 C.3     1  UNL1        0.0812
     12 C          57.8441   90.7102    5.7780 C.3     1  UNL1        0.0143
     13 C          58.9657   89.9138    6.3759 C.3     1  UNL1        0.0330
     14 C          59.4544   88.8996    7.3671 C.ar    1  UNL1       -0.0029
     15 C          59.3212   87.4354    7.0696 C.ar    1  UNL1       -0.0011
     16 C          59.8099   86.4212    8.0608 C.ar    1  UNL1        0.0204
     17 C          60.4317   86.8711    9.3496 C.ar    1  UNL1        0.0989
     18 N          60.5648   88.3353    9.6471 N.ar    1  UNL1       -0.2426
     19 C          60.0761   89.3495    8.6558 C.ar    1  UNL1        0.0946
     20 S          63.5587   94.9711   -0.6017 S.O2    1  UNL1        0.0305
     21 O          64.6807   94.1761   -0.0026 O.2     1  UNL1       -0.1641
     22 O          62.4366   95.7660   -1.2009 O.2     1  UNL1       -0.1641
     23 N          65.5989   96.3824   -3.5868 N.ar    1  UNL1       -0.2481
     24 C          64.4267   95.6190   -3.0454 C.ar    1  UNL1        0.1154
     25 C          64.5241   95.6201   -1.5486 C.ar    1  UNL1        0.1497
     26 C          65.7565   96.3842   -1.1648 C.ar    1  UNL1        0.1404
     27 N          66.4208   96.8554   -2.4245 N.ar    1  UNL1       -0.1662
     28 C          65.8969   96.6295   -5.0360 C.3     1  UNL1        0.1276
     29 C          65.7603   94.6687   -6.7350 C.3     1  UNL1        0.0021
     30 C          65.1458   95.8781   -6.0949 C.3     1  UNL1        0.0264
@<TRIPOS>BOND
     1    29    30    1
     2    30    28    1
     3    28    23    1
     4    23    24   ar
     5    24    25   ar
     6    25    20    1
     7    20    21    2
     8    20    22    2
     9    20     1    1
    10     1     2   ar
    11     2     3   ar
    12     3     4   ar
    13     4     7    1
    14     7     8   am
    15     8     9    2
    16    11     8    1
    17    11    12    1
    18    12    13    1
    19    13    14    1
    20    14    15   ar
    21    15    16   ar
    22    16    17   ar
    23    17    18   ar
    24    18    19   ar
    25     4     5   ar
    26     5     6   ar
    27    25    26   ar
    28    26    27   ar
    29    27    23   ar
    30     6     1   ar
    31    13    11    1
    32    19    14   ar
    33     7    10    1
@<TRIPOS>MOLECULE
*****
 30 33 0 0 0
SMALL
GASTEIGER

@<TRIPOS>ATOM
      1 C          63.5232   86.3187   13.5909 C.ar    1  UNL1        0.1105
      2 C          64.2870   86.9572   14.7129 C.ar    1  UNL1        0.0200
      3 C          64.6102   88.4210   14.6624 C.ar    1  UNL1        0.0160
      4 C          64.1697   89.2464   13.4900 C.ar    1  UNL1        0.0504
      5 C          63.4059   88.6079   12.3680 C.ar    1  UNL1        0.0160
      6 C          63.0827   87.1440   12.4184 C.ar    1  UNL1        0.0200
      7 N          64.4930   90.7103   13.4395 N.am    1  UNL1       -0.2839
      8 C          65.8285   91.2003   13.9153 C.2     1  UNL1        0.2260
      9 O          66.8407   90.2264   14.4415 O.2     1  UNL1       -0.2748
     10 H          63.8286   91.3495   13.0941 H       1  UNL1        0.1549
     11 C          66.1518   92.6642   13.8648 C.3     1  UNL1        0.0812
     12 C          66.5248   93.9370   14.5653 C.3     1  UNL1        0.0143
     13 C          66.3387   93.9269   13.0770 C.3     1  UNL1        0.0330
     14 C          66.3392   94.6500   11.7628 C.ar    1  UNL1       -0.0029
     15 C          66.0119   96.1130   11.7116 C.ar    1  UNL1       -0.0011
     16 C          66.0124   96.8361   10.3975 C.ar    1  UNL1        0.0204
     17 C          66.3401   96.0962    9.1344 C.ar    1  UNL1        0.0989
     18 N          66.6674   94.6332    9.1856 N.ar    1  UNL1       -0.2426
     19 C          66.6669   93.9101   10.4998 C.ar    1  UNL1        0.0946
     20 S          63.1999   84.8547   13.6414 S.O2    1  UNL1        0.0305
     21 O          64.4010   84.5602   12.7926 O.2     1  UNL1       -0.1641
     22 O          61.9988   85.1493   14.4902 O.2     1  UNL1       -0.1641
     23 N          62.6874   81.0467   13.0920 N.ar    1  UNL1       -0.2481
     24 C          63.1855   82.3824   12.6253 C.ar    1  UNL1        0.1154
     25 C          62.8766   83.3909   13.6918 C.ar    1  UNL1        0.1497
     26 C          62.1876   82.6785   14.8178 C.ar    1  UNL1        0.1404
     27 N          62.0707   81.2297   14.4471 N.ar    1  UNL1       -0.1662
     28 C          62.7884   79.7549   12.3364 C.3     1  UNL1        0.1276
     29 C          62.7902   78.4646   10.0814 C.3     1  UNL1        0.0021
     30 C          62.7785   79.7606   10.8364 C.3     1  UNL1        0.0264
@<TRIPOS>BOND
     1    29    30    1
     2    30    28    1
     3    28    23    1
     4    23    24   ar
     5    24    25   ar
     6    25    20    1
     7    20    21    2
     8    20    22    2
     9    20     1    1
    10     1     2   ar
    11     2     3   ar
    12     3     4   ar
    13     4     7    1
    14     7     8   am
    15     8     9    2
    16    11     8    1
    17    11    12    1
    18    12    13    1
    19    13    14    1
    20    14    15   ar
    21    15    16   ar
    22    16    17   ar
    23    17    18   ar
    24    18    19   ar
    25     4     5   ar
    26     5     6   ar
    27    25    26   ar
    28    26    27   ar
    29    27    23   ar
    30     6     1   ar
    31    13    11    1
    32    19    14   ar
    33     7    10    1
@<TRIPOS>MOLECULE
*****
 30 33 0 0 0
SMALL
GASTEIGER

@<TRIPOS>ATOM
      1 C          63.5651   86.2914   13.4699 C.ar    1  UNL1        0.1105
      2 C          63.0992   87.1215   12.3107 C.ar    1  UNL1        0.0200
      3 C          63.4052   88.5893   12.2683 C.ar    1  UNL1        0.0160
      4 C          64.1770   89.2270   13.3853 C.ar    1  UNL1        0.0504
      5 C          64.6429   88.3970   14.5445 C.ar    1  UNL1        0.0160
      6 C          64.3370   86.9291   14.5868 C.ar    1  UNL1        0.0200
      7 N          64.4829   90.6950   13.3429 N.am    1  UNL1       -0.2839
      8 C          65.7954   91.2028   13.8621 C.2     1  UNL1        0.2260
      9 O          66.8019   90.2429   14.4236 O.2     1  UNL1       -0.2748
     10 H          63.8223   91.3250   12.9744 H       1  UNL1        0.1549
     11 C          66.1013   92.6707   13.8197 C.3     1  UNL1        0.0812
     12 C          66.4434   93.9473   14.5290 C.3     1  UNL1        0.0143
     13 C          66.2890   93.9365   13.0371 C.3     1  UNL1        0.0330
     14 C          66.3082   94.6610   11.7238 C.ar    1  UNL1       -0.0029
     15 C          66.0145   96.1312   11.6739 C.ar    1  UNL1       -0.0011
     16 C          66.0336   96.8557   10.3607 C.ar    1  UNL1        0.0204
     17 C          66.3466   96.1101    9.0972 C.ar    1  UNL1        0.0989
     18 N          66.6403   94.6400    9.1471 N.ar    1  UNL1       -0.2426
     19 C          66.6211   93.9155   10.4605 C.ar    1  UNL1        0.0946
     20 S          63.2592   84.8235   13.5122 S.O2    1  UNL1        0.0305
     21 O          62.9061   84.9389   14.9655 O.2     1  UNL1       -0.1641
     22 O          63.6123   84.7080   12.0590 O.2     1  UNL1       -0.1641
     23 N          61.8523   81.2391   14.0006 N.ar    1  UNL1       -0.2481
     24 C          61.7538   82.7231   14.1957 C.ar    1  UNL1        0.1154
     25 C          62.9533   83.3556   13.5546 C.ar    1  UNL1        0.1497
     26 C          63.7932   82.2626   12.9631 C.ar    1  UNL1        0.1404
     27 N          63.1128   80.9545   13.2387 N.ar    1  UNL1       -0.1662
     28 C          60.8640   80.2189   14.4826 C.3     1  UNL1        0.1276
     29 C          58.3784   79.5810   14.8887 C.3     1  UNL1        0.0021
     30 C          59.4134   80.3524   14.1248 C.3     1  UNL1        0.0264
@<TRIPOS>BOND
     1    29    30    1
     2    30    28    1
     3    28    23    1
     4    23    24   ar
     5    24    25   ar
     6    25    20    1
     7    20    21    2
     8    20    22    2
     9    20     1    1
    10     1     2   ar
    11     2     3   ar
    12     3     4   ar
    13     4     7    1
    14     7     8   am
    15     8     9    2
    16    11     8    1
    17    11    12    1
    18    12    13    1
    19    13    14    1
    20    14    15   ar
    21    15    16   ar
    22    16    17   ar
    23    17    18   ar
    24    18    19   ar
    25     4     5   ar
    26     5     6   ar
    27    25    26   ar
    28    26    27   ar
    29    27    23   ar
    30     6     1   ar
    31    13    11    1
    32    19    14   ar
    33     7    10    1
@<TRIPOS>MOLECULE
*****
 30 33 0 0 0
SMALL
GASTEIGER

@<TRIPOS>ATOM
      1 C          61.0672   93.3099    1.8279 C.ar    1  UNL1        0.1105
      2 C          59.8185   93.2477    2.6565 C.ar    1  UNL1        0.0200
      3 C          59.7620   92.3570    3.8621 C.ar    1  UNL1        0.0160
      4 C          60.9542   91.5284    4.2389 C.ar    1  UNL1        0.0504
      5 C          62.2029   91.5906    3.4103 C.ar    1  UNL1        0.0160
      6 C          62.2595   92.4813    2.2048 C.ar    1  UNL1        0.0200
      7 N          60.8976   90.6376    5.4446 N.am    1  UNL1       -0.2839
      8 C          59.5789   90.1076    5.9242 C.2     1  UNL1        0.2260
      9 O          58.3168   90.4683    5.1984 O.2     1  UNL1       -0.2748
     10 H          61.7260   90.4009    5.9210 H       1  UNL1        0.1549
     11 C          59.5224   89.2169    7.1298 C.3     1  UNL1        0.0812
     12 C          59.0283   87.9701    7.8017 C.3     1  UNL1        0.0143
     13 C          59.9184   88.9208    8.5460 C.3     1  UNL1        0.0330
     14 C          60.6609   89.2988    9.7933 C.ar    1  UNL1       -0.0029
     15 C          62.1055   89.6951    9.7152 C.ar    1  UNL1       -0.0011
     16 C          62.8480   90.0730   10.9624 C.ar    1  UNL1        0.0204
     17 C          62.1460   90.0547   12.2879 C.ar    1  UNL1        0.0989
     18 N          60.7014   89.6584   12.3660 N.ar    1  UNL1       -0.2426
     19 C          59.9589   89.2804   11.1187 C.ar    1  UNL1        0.0946
     20 S          61.1238   94.2007    0.6223 S.O2    1  UNL1        0.0305
     21 O          62.5434   93.7817    0.3793 O.2     1  UNL1       -0.1641
     22 O          59.7042   94.6197    0.8653 O.2     1  UNL1       -0.1641
     23 N          61.8486   96.0684   -2.7021 N.ar    1  UNL1       -0.2481
     24 C          62.1542   94.9779   -1.7185 C.ar    1  UNL1        0.1154
     25 C          61.1803   95.0914   -0.5832 C.ar    1  UNL1        0.1497
     26 C          60.2729   96.2521   -0.8652 C.ar    1  UNL1        0.1404
     27 N          60.6859   96.8559   -2.1747 N.ar    1  UNL1       -0.1662
     28 C          62.5778   96.3262   -3.9873 C.3     1  UNL1        0.1276
     29 C          64.6201   94.7680   -4.3761 C.3     1  UNL1        0.0021
     30 C          64.0623   96.1243   -4.0610 C.3     1  UNL1        0.0264
@<TRIPOS>BOND
     1    29    30    1
     2    30    28    1
     3    28    23    1
     4    23    24   ar
     5    24    25   ar
     6    25    20    1
     7    20    21    2
     8    20    22    2
     9    20     1    1
    10     1     2   ar
    11     2     3   ar
    12     3     4   ar
    13     4     7    1
    14     7     8   am
    15     8     9    2
    16    11     8    1
    17    11    12    1
    18    12    13    1
    19    13    14    1
    20    14    15   ar
    21    15    16   ar
    22    16    17   ar
    23    17    18   ar
    24    18    19   ar
    25     4     5   ar
    26     5     6   ar
    27    25    26   ar
    28    26    27   ar
    29    27    23   ar
    30     6     1   ar
    31    13    11    1
    32    19    14   ar
    33     7    10    1
