@<TRIPOS>MOLECULE
*****
 42 46 0 0 0
SMALL
GASTEIGER

@<TRIPOS>ATOM
      1 C          62.9578   85.9807   13.4044 C.ar    1  UNL1        0.2443
      2 N          63.1060   87.4031   13.8572 N.ar    1  UNL1       -0.1953
      3 C          64.2656   87.7976   14.7230 C.ar    1  UNL1        0.1354
      4 C          65.2771   86.7697   15.1359 C.ar    1  UNL1        0.0359
      5 C          65.1289   85.3474   14.6831 C.ar    1  UNL1        0.0221
      6 C          63.9693   84.9529   13.8173 C.ar    1  UNL1        0.1023
      7 N          63.8211   83.5305   13.3645 N.pl3   1  UNL1       -0.3039
      8 C          64.7167   82.8157   12.3966 C.3     1  UNL1        0.0910
      9 C          64.2005   81.4166   12.2339 C.3     1  UNL1        0.0232
     10 C          62.9859   81.2670   13.1014 C.3     1  UNL1        0.0232
     11 C          62.7514   82.5735   13.8000 C.3     1  UNL1        0.0910
     12 N          64.4138   89.2199   15.1758 N.pl3   1  UNL1       -0.2955
     13 H          64.2049   89.4646   16.1062 H       1  UNL1        0.1537
     14 C          64.8804   90.2693   14.2110 C.ar    1  UNL1        0.0839
     15 C          66.2423   90.8785   14.3661 C.ar    1  UNL1        0.0190
     16 C          66.7088   91.9280   13.4012 C.ar    1  UNL1        0.0160
     17 C          65.8134   92.3683   12.2813 C.ar    1  UNL1        0.0510
     18 C          64.4515   91.7592   12.1261 C.ar    1  UNL1        0.0527
     19 C          63.9850   90.7097   13.0909 C.ar    1  UNL1        0.1532
     20 N          66.2800   93.4179   11.3164 N.pl3   1  UNL1       -0.3046
     21 C          66.1165   94.8707   11.6517 C.3     1  UNL1        0.1081
     22 C          66.5830   95.9202   10.6869 C.3     1  UNL1        0.0938
     23 N          67.2129   95.5169    9.3868 N.3     1  UNL1       -0.2686
     24 C          67.6795   96.5664    8.4219 C.3     1  UNL1        0.0897
     25 C          67.3764   94.0640    9.0515 C.3     1  UNL1        0.0938
     26 C          66.9099   93.0145   10.0163 C.3     1  UNL1        0.1081
     27 O          62.6230   90.1005   12.9358 O.3     1  UNL1       -0.4701
     28 C          61.9093   90.1848   11.6192 C.3     1  UNL1        0.2525
     29 O          61.7982   85.5862   12.5386 O.3     1  UNL1       -0.4350
     30 C          61.1820   86.0178    8.6419 C.ar    1  UNL1        0.0496
     31 C          61.0037   86.1351   10.1266 C.ar    1  UNL1        0.0519
     32 C          61.9765   85.4688   11.0538 C.ar    1  UNL1        0.1485
     33 C          63.1275   84.6851   10.4963 C.ar    1  UNL1        0.0373
     34 C          63.3058   84.5678    9.0116 C.ar    1  UNL1        0.0001
     35 C          62.3330   85.2341    8.0844 C.ar    1  UNL1       -0.0082
     36 C          62.5113   85.1168    6.5996 C.3     1  UNL1        0.0323
     37 C          59.9414   88.1548    7.8392 C.2     1  UNL1        0.2496
     38 O          60.6464   88.9591    8.8910 O.2     1  UNL1       -0.2698
     39 N          60.2092   86.6841    7.7147 N.am    1  UNL1       -0.2805
     40 H          59.7465   86.1563    7.0244 H       1  UNL1        0.1552
     41 C          59.4291   89.9291    6.0118 C.2     1  UNL1        0.0048
     42 C          58.9686   88.8211    6.9120 C.2     1  UNL1        0.0580
@<TRIPOS>BOND
     1    41    42    2
     2    42    37    1
     3    37    38    2
     4    37    39   am
     5    39    30    1
     6    30    31   ar
     7    31    32   ar
     8    32    29    1
     9    29     1    1
    10     1     2   ar
    11     2     3   ar
    12     3    12    1
    13    12    14    1
    14    14    15   ar
    15    15    16   ar
    16    16    17   ar
    17    17    20    1
    18    20    21    1
    19    21    22    1
    20    22    23    1
    21    23    24    1
    22    23    25    1
    23    25    26    1
    24    17    18   ar
    25    18    19   ar
    26    19    27    1
    27    27    28    1
    28     3     4   ar
    29     4     5   ar
    30     5     6   ar
    31     6     7    1
    32     7     8    1
    33     8     9    1
    34     9    10    1
    35    10    11    1
    36    32    33   ar
    37    33    34   ar
    38    34    35   ar
    39    35    36    1
    40    35    30   ar
    41     6     1   ar
    42    11     7    1
    43    19    14   ar
    44    26    20    1
    45    39    40    1
    46    12    13    1
@<TRIPOS>MOLECULE
*****
 42 46 0 0 0
SMALL
GASTEIGER

@<TRIPOS>ATOM
      1 C          64.3825   91.5816   12.2875 C.ar    1  UNL1        0.2443
      2 N          63.8929   90.6325   13.3409 N.ar    1  UNL1       -0.1953
      3 C          64.6637   90.4656   14.6168 C.ar    1  UNL1        0.1354
      4 C          65.9242   91.2479   14.8393 C.ar    1  UNL1        0.0359
      5 C          66.4137   92.1969   13.7859 C.ar    1  UNL1        0.0221
      6 C          65.6429   92.3637   12.5100 C.ar    1  UNL1        0.1023
      7 N          66.1325   93.3128   11.4566 N.pl3   1  UNL1       -0.3039
      8 C          66.8136   92.9327   10.1753 C.3     1  UNL1        0.0910
      9 C          67.1290   94.1936    9.4264 C.3     1  UNL1        0.0232
     10 C          66.6428   95.3529   10.2449 C.3     1  UNL1        0.0232
     11 C          66.0270   94.8085   11.4996 C.3     1  UNL1        0.0910
     12 N          64.1742   89.5166   15.6702 N.pl3   1  UNL1       -0.2955
     13 H          64.0070   89.8401   16.5849 H       1  UNL1        0.1537
     14 C          63.9394   88.0747   15.3299 C.ar    1  UNL1        0.0839
     15 C          64.2687   87.5645   13.9583 C.ar    1  UNL1        0.0190
     16 C          64.0338   86.1226   13.6181 C.ar    1  UNL1        0.0160
     17 C          63.4698   85.1909   14.6494 C.ar    1  UNL1        0.0510
     18 C          63.1405   85.7011   16.0210 C.ar    1  UNL1        0.0527
     19 C          63.3753   87.1429   16.3613 C.ar    1  UNL1        0.1532
     20 N          63.2349   83.7489   14.3092 N.pl3   1  UNL1       -0.3046
     21 C          61.9696   83.0718   14.7457 C.3     1  UNL1        0.1081
     22 C          61.7347   81.6299   14.4055 C.3     1  UNL1        0.0938
     23 N          62.7652   80.8652   13.6288 N.3     1  UNL1       -0.2686
     24 C          62.5304   79.4232   13.2886 C.3     1  UNL1        0.0897
     25 C          64.0305   81.5423   13.1923 C.3     1  UNL1        0.0938
     26 C          64.2654   82.9842   13.5325 C.3     1  UNL1        0.1081
     27 O          63.0460   87.6531   17.7329 O.3     1  UNL1       -0.4701
     28 C          62.6397   86.6941   18.8123 C.3     1  UNL1        0.2525
     29 O          63.6117   91.7484   11.0116 O.3     1  UNL1       -0.4350
     30 C          61.9968   88.3775    9.6776 C.ar    1  UNL1        0.0496
     31 C          63.0219   89.3984   10.0735 C.ar    1  UNL1        0.0519
     32 C          62.5864   90.7275   10.6157 C.ar    1  UNL1        0.1485
     33 C          61.1258   91.0355   10.7622 C.ar    1  UNL1        0.0373
     34 C          60.1006   90.0146   10.3664 C.ar    1  UNL1        0.0001
     35 C          60.5361   88.6856    9.8241 C.ar    1  UNL1       -0.0082
     36 C          59.5109   87.6646    9.4283 C.3     1  UNL1        0.0323
     37 C          62.3483   85.8232    9.9964 C.2     1  UNL1        0.2496
     38 O          61.8289   85.9268   11.3998 O.2     1  UNL1       -0.2698
     39 N          62.4323   87.0485    9.1354 N.am    1  UNL1       -0.2805
     40 H          62.7732   86.9805    8.2143 H       1  UNL1        0.1552
     41 C          63.8850   83.7325   10.1306 C.2     1  UNL1        0.0048
     42 C          62.7839   84.4942    9.4541 C.2     1  UNL1        0.0580
@<TRIPOS>BOND
     1    41    42    2
     2    42    37    1
     3    37    38    2
     4    37    39   am
     5    39    30    1
     6    30    31   ar
     7    31    32   ar
     8    32    29    1
     9    29     1    1
    10     1     2   ar
    11     2     3   ar
    12     3    12    1
    13    12    14    1
    14    14    15   ar
    15    15    16   ar
    16    16    17   ar
    17    17    20    1
    18    20    21    1
    19    21    22    1
    20    22    23    1
    21    23    24    1
    22    23    25    1
    23    25    26    1
    24    17    18   ar
    25    18    19   ar
    26    19    27    1
    27    27    28    1
    28     3     4   ar
    29     4     5   ar
    30     5     6   ar
    31     6     7    1
    32     7     8    1
    33     8     9    1
    34     9    10    1
    35    10    11    1
    36    32    33   ar
    37    33    34   ar
    38    34    35   ar
    39    35    36    1
    40    35    30   ar
    41     6     1   ar
    42    11     7    1
    43    19    14   ar
    44    26    20    1
    45    39    40    1
    46    12    13    1
@<TRIPOS>MOLECULE
*****
 42 46 0 0 0
SMALL
GASTEIGER

@<TRIPOS>ATOM
      1 C          63.6075   86.8819   13.6910 C.ar    1  UNL1        0.2443
      2 N          63.8006   88.3479   13.9436 N.ar    1  UNL1       -0.1953
      3 C          63.8510   88.8663   15.3502 C.ar    1  UNL1        0.1354
      4 C          63.7084   87.9187   16.5043 C.ar    1  UNL1        0.0359
      5 C          63.5153   86.4528   16.2517 C.ar    1  UNL1        0.0221
      6 C          63.4649   85.9344   14.8450 C.ar    1  UNL1        0.1023
      7 N          63.2718   84.4685   14.5924 N.pl3   1  UNL1       -0.3039
      8 C          62.0405   83.6735   14.9117 C.3     1  UNL1        0.0910
      9 C          62.2838   82.2538   14.4928 C.3     1  UNL1        0.0232
     10 C          63.6654   82.1715   13.9146 C.3     1  UNL1        0.0232
     11 C          64.2760   83.5402   13.9762 C.3     1  UNL1        0.0910
     12 N          64.0441   90.3321   15.6029 N.pl3   1  UNL1       -0.2955
     13 H          63.8235   90.7131   16.4835 H       1  UNL1        0.1537
     14 C          64.5732   91.2175   14.5138 C.ar    1  UNL1        0.0839
     15 C          63.9707   91.1601   13.1414 C.ar    1  UNL1        0.0190
     16 C          64.4999   92.0456   12.0523 C.ar    1  UNL1        0.0160
     17 C          65.6315   92.9884   12.3357 C.ar    1  UNL1        0.0510
     18 C          66.2341   93.0458   13.7082 C.ar    1  UNL1        0.0527
     19 C          65.7050   92.1604   14.7972 C.ar    1  UNL1        0.1532
     20 N          66.1607   93.8739   11.2467 N.pl3   1  UNL1       -0.3046
     21 C          66.0889   95.3651   11.3913 C.3     1  UNL1        0.1081
     22 C          66.6181   96.2506   10.3023 C.3     1  UNL1        0.0938
     23 N          67.2190   95.6448    9.0687 N.3     1  UNL1       -0.2686
     24 C          67.7482   96.5302    7.9796 C.3     1  UNL1        0.0897
     25 C          67.2909   94.1535    8.9241 C.3     1  UNL1        0.0938
     26 C          66.7617   93.2680   10.0131 C.3     1  UNL1        0.1081
     27 O          66.3075   92.2178   16.1697 O.3     1  UNL1       -0.4701
     28 C          67.7869   92.4044   16.3321 C.3     1  UNL1        0.2525
     29 O          63.5571   86.3635   12.2843 O.3     1  UNL1       -0.4350
     30 C          61.1995   86.8328    9.1265 C.ar    1  UNL1        0.0496
     31 C          62.1179   86.1971   10.1276 C.ar    1  UNL1        0.0519
     32 C          62.6386   86.9994   11.2831 C.ar    1  UNL1        0.1485
     33 C          62.2409   88.4374   11.4376 C.ar    1  UNL1        0.0373
     34 C          61.3224   89.0731   10.4365 C.ar    1  UNL1        0.0001
     35 C          60.8018   88.2708    9.2809 C.ar    1  UNL1       -0.0082
     36 C          59.8833   88.9066    8.2798 C.3     1  UNL1        0.0323
     37 C          61.6109   85.1593    7.1822 C.2     1  UNL1        0.2496
     38 O          63.0638   85.0904    7.5490 O.2     1  UNL1       -0.2698
     39 N          60.6788   86.0305    7.9710 N.am    1  UNL1       -0.2805
     40 H          59.7253   86.0758    7.7302 H       1  UNL1        0.1552
     41 C          62.0054   83.9882    4.8968 C.2     1  UNL1        0.0048
     42 C          61.0902   84.3571    6.0267 C.2     1  UNL1        0.0580
@<TRIPOS>BOND
     1    41    42    2
     2    42    37    1
     3    37    38    2
     4    37    39   am
     5    39    30    1
     6    30    31   ar
     7    31    32   ar
     8    32    29    1
     9    29     1    1
    10     1     2   ar
    11     2     3   ar
    12     3    12    1
    13    12    14    1
    14    14    15   ar
    15    15    16   ar
    16    16    17   ar
    17    17    20    1
    18    20    21    1
    19    21    22    1
    20    22    23    1
    21    23    24    1
    22    23    25    1
    23    25    26    1
    24    17    18   ar
    25    18    19   ar
    26    19    27    1
    27    27    28    1
    28     3     4   ar
    29     4     5   ar
    30     5     6   ar
    31     6     7    1
    32     7     8    1
    33     8     9    1
    34     9    10    1
    35    10    11    1
    36    32    33   ar
    37    33    34   ar
    38    34    35   ar
    39    35    36    1
    40    35    30   ar
    41     6     1   ar
    42    11     7    1
    43    19    14   ar
    44    26    20    1
    45    39    40    1
    46    12    13    1
@<TRIPOS>MOLECULE
*****
 42 46 0 0 0
SMALL
GASTEIGER

@<TRIPOS>ATOM
      1 C          62.3054   86.2508   10.0893 C.ar    1  UNL1        0.2443
      2 N          62.2365   87.1660   11.2758 N.ar    1  UNL1       -0.1953
      3 C          61.3116   88.3469   11.2594 C.ar    1  UNL1        0.1354
      4 C          60.4557   88.6125   10.0565 C.ar    1  UNL1        0.0359
      5 C          60.5247   87.6974    8.8701 C.ar    1  UNL1        0.0221
      6 C          61.4495   86.5165    8.8865 C.ar    1  UNL1        0.1023
      7 N          61.5184   85.6013    7.7000 N.pl3   1  UNL1       -0.3039
      8 C          62.7669   85.0164    7.1091 C.3     1  UNL1        0.0910
      9 C          62.3711   84.1639    5.9400 C.3     1  UNL1        0.0232
     10 C          60.8779   84.2220    5.8085 C.3     1  UNL1        0.0232
     11 C          60.3510   85.1103    6.8962 C.3     1  UNL1        0.0910
     12 N          61.2427   89.2621   12.4459 N.pl3   1  UNL1       -0.2955
     13 H          60.3788   89.4337   12.8857 H       1  UNL1        0.1537
     14 C          62.4901   89.9159   12.9621 C.ar    1  UNL1        0.0839
     15 C          63.0245   89.5488   14.3148 C.ar    1  UNL1        0.0190
     16 C          64.2719   90.2027   14.8311 C.ar    1  UNL1        0.0160
     17 C          64.9848   91.2236   13.9947 C.ar    1  UNL1        0.0510
     18 C          64.4504   91.5906   12.6421 C.ar    1  UNL1        0.0527
     19 C          63.2030   90.9368   12.1258 C.ar    1  UNL1        0.1532
     20 N          66.2323   91.8774   14.5110 N.pl3   1  UNL1       -0.3046
     21 C          67.4870   91.8530   13.6894 C.3     1  UNL1        0.1081
     22 C          68.7344   92.5068   14.2056 C.3     1  UNL1        0.0938
     23 N          68.7270   93.1851   15.5434 N.3     1  UNL1       -0.2686
     24 C          69.9745   93.8389   16.0597 C.3     1  UNL1        0.0897
     25 C          67.4723   93.2095   16.3650 C.3     1  UNL1        0.0938
     26 C          66.2249   92.5557   15.8488 C.3     1  UNL1        0.1081
     27 O          62.6686   91.3039   10.7732 O.3     1  UNL1       -0.4701
     28 C          63.5984   91.8145    9.7126 C.3     1  UNL1        0.2525
     29 O          63.2302   85.0700   10.1058 O.3     1  UNL1       -0.4350
     30 C          62.5925   83.3213   13.6108 C.ar    1  UNL1        0.0496
     31 C          62.7539   84.3858   12.5665 C.ar    1  UNL1        0.0519
     32 C          63.0688   84.0054   11.1501 C.ar    1  UNL1        0.1485
     33 C          63.2222   82.5604   10.7781 C.ar    1  UNL1        0.0373
     34 C          63.0608   81.4959   11.8224 C.ar    1  UNL1        0.0001
     35 C          62.7459   81.8763   13.2388 C.ar    1  UNL1       -0.0082
     36 C          62.5845   80.8117   14.2832 C.3     1  UNL1        0.0323
     37 C          62.8124   84.9825   15.5963 C.2     1  UNL1        0.2496
     38 O          63.6619   85.8828   14.7491 O.2     1  UNL1       -0.2698
     39 N          62.2777   83.7018   15.0272 N.am    1  UNL1       -0.2805
     40 H          61.7201   83.1109   15.5833 H       1  UNL1        0.1552
     41 C          62.7932   86.7505   17.5000 C.2     1  UNL1        0.0048
     42 C          62.4975   85.3629   17.0127 C.2     1  UNL1        0.0580
@<TRIPOS>BOND
     1    41    42    2
     2    42    37    1
     3    37    38    2
     4    37    39   am
     5    39    30    1
     6    30    31   ar
     7    31    32   ar
     8    32    29    1
     9    29     1    1
    10     1     2   ar
    11     2     3   ar
    12     3    12    1
    13    12    14    1
    14    14    15   ar
    15    15    16   ar
    16    16    17   ar
    17    17    20    1
    18    20    21    1
    19    21    22    1
    20    22    23    1
    21    23    24    1
    22    23    25    1
    23    25    26    1
    24    17    18   ar
    25    18    19   ar
    26    19    27    1
    27    27    28    1
    28     3     4   ar
    29     4     5   ar
    30     5     6   ar
    31     6     7    1
    32     7     8    1
    33     8     9    1
    34     9    10    1
    35    10    11    1
    36    32    33   ar
    37    33    34   ar
    38    34    35   ar
    39    35    36    1
    40    35    30   ar
    41     6     1   ar
    42    11     7    1
    43    19    14   ar
    44    26    20    1
    45    39    40    1
    46    12    13    1
@<TRIPOS>MOLECULE
*****
 42 46 0 0 0
SMALL
GASTEIGER

@<TRIPOS>ATOM
      1 C          62.9721   85.9788   13.3389 C.ar    1  UNL1        0.2443
      2 N          63.0003   87.4212   13.7498 N.ar    1  UNL1       -0.1953
      3 C          64.1556   87.9518   14.5458 C.ar    1  UNL1        0.1354
      4 C          65.2828   87.0400   14.9309 C.ar    1  UNL1        0.0359
      5 C          65.2546   85.5977   14.5199 C.ar    1  UNL1        0.0221
      6 C          64.0993   85.0671   13.7239 C.ar    1  UNL1        0.1023
      7 N          64.0711   83.6248   13.3129 N.pl3   1  UNL1       -0.3039
      8 C          63.7229   82.4632   14.1958 C.3     1  UNL1        0.0910
      9 C          63.8228   81.2112   13.3755 C.3     1  UNL1        0.0232
     10 C          64.2327   81.5992   11.9857 C.3     1  UNL1        0.0232
     11 C          64.3861   83.0908   11.9471 C.3     1  UNL1        0.0910
     12 N          64.1838   89.3941   14.9568 N.pl3   1  UNL1       -0.2955
     13 H          63.8533   89.6593   15.8454 H       1  UNL1        0.1537
     14 C          64.7157   90.4323   14.0139 C.ar    1  UNL1        0.0839
     15 C          66.0598   91.0511   14.2602 C.ar    1  UNL1        0.0190
     16 C          66.5917   92.0893   13.3172 C.ar    1  UNL1        0.0160
     17 C          65.7795   92.5088   12.1280 C.ar    1  UNL1        0.0510
     18 C          64.4355   91.8901   11.8816 C.ar    1  UNL1        0.0527
     19 C          63.9036   90.8518   12.8245 C.ar    1  UNL1        0.1532
     20 N          66.3114   93.5471   11.1850 N.pl3   1  UNL1       -0.3046
     21 C          66.0914   95.0030   11.4709 C.3     1  UNL1        0.1081
     22 C          66.6233   96.0413   10.5280 C.3     1  UNL1        0.0938
     23 N          67.3751   95.6236    9.2991 N.3     1  UNL1       -0.2686
     24 C          67.9070   96.6618    8.3561 C.3     1  UNL1        0.0897
     25 C          67.5950   94.1676    9.0131 C.3     1  UNL1        0.0938
     26 C          67.0632   93.1293    9.9560 C.3     1  UNL1        0.1081
     27 O          62.5595   90.2331   12.5782 O.3     1  UNL1       -0.4701
     28 C          61.7193   90.6987   11.4262 C.3     1  UNL1        0.2525
     29 O          61.8168   85.4482   12.5428 O.3     1  UNL1       -0.4350
     30 C          61.0045   86.4476    8.7890 C.ar    1  UNL1        0.0496
     31 C          61.5147   85.6808    9.9729 C.ar    1  UNL1        0.0519
     32 C          61.3065   86.2151   11.3589 C.ar    1  UNL1        0.1485
     33 C          60.5882   87.5163   11.5611 C.ar    1  UNL1        0.0373
     34 C          60.0780   88.2831   10.3772 C.ar    1  UNL1        0.0001
     35 C          60.2862   87.7488    8.9912 C.ar    1  UNL1       -0.0082
     36 C          59.7759   88.5157    7.8072 C.3     1  UNL1        0.0323
     37 C          62.3508   84.9772    7.1230 C.2     1  UNL1        0.2496
     38 O          63.2808   84.5755    8.2293 O.2     1  UNL1       -0.2698
     39 N          61.2126   85.9133    7.4029 N.am    1  UNL1       -0.2805
     40 H          60.6022   86.1770    6.6769 H       1  UNL1        0.1552
     41 C          61.4094   83.8400    4.9851 C.2     1  UNL1        0.0048
     42 C          62.5589   84.4429    5.7370 C.2     1  UNL1        0.0580
@<TRIPOS>BOND
     1    41    42    2
     2    42    37    1
     3    37    38    2
     4    37    39   am
     5    39    30    1
     6    30    31   ar
     7    31    32   ar
     8    32    29    1
     9    29     1    1
    10     1     2   ar
    11     2     3   ar
    12     3    12    1
    13    12    14    1
    14    14    15   ar
    15    15    16   ar
    16    16    17   ar
    17    17    20    1
    18    20    21    1
    19    21    22    1
    20    22    23    1
    21    23    24    1
    22    23    25    1
    23    25    26    1
    24    17    18   ar
    25    18    19   ar
    26    19    27    1
    27    27    28    1
    28     3     4   ar
    29     4     5   ar
    30     5     6   ar
    31     6     7    1
    32     7     8    1
    33     8     9    1
    34     9    10    1
    35    10    11    1
    36    32    33   ar
    37    33    34   ar
    38    34    35   ar
    39    35    36    1
    40    35    30   ar
    41     6     1   ar
    42    11     7    1
    43    19    14   ar
    44    26    20    1
    45    39    40    1
    46    12    13    1
@<TRIPOS>MOLECULE
*****
 42 46 0 0 0
SMALL
GASTEIGER

@<TRIPOS>ATOM
      1 C          60.9087   88.3023    9.7200 C.ar    1  UNL1        0.2443
      2 N          60.1150   89.3026    8.9329 N.ar    1  UNL1       -0.1953
      3 C          59.4613   88.8957    7.6456 C.ar    1  UNL1        0.1354
      4 C          59.6013   87.4885    7.1454 C.ar    1  UNL1        0.0359
      5 C          60.3950   86.4882    7.9325 C.ar    1  UNL1        0.0221
      6 C          61.0486   86.8951    9.2198 C.ar    1  UNL1        0.1023
      7 N          61.8423   85.8948   10.0069 N.pl3   1  UNL1       -0.3039
      8 C          62.8874   84.9696    9.4574 C.3     1  UNL1        0.0910
      9 C          63.4213   84.1470   10.5926 C.3     1  UNL1        0.0232
     10 C          62.7061   84.5639   11.8435 C.3     1  UNL1        0.0232
     11 C          61.7303   85.6441   11.4815 C.3     1  UNL1        0.0910
     12 N          58.6677   89.8960    6.8585 N.pl3   1  UNL1       -0.2955
     13 H          57.7170   90.0441    7.0672 H       1  UNL1        0.1537
     14 C          59.3224   90.6705    5.7534 C.ar    1  UNL1        0.0839
     15 C          60.7732   90.4515    5.4414 C.ar    1  UNL1        0.0190
     16 C          61.4280   91.2261    4.3363 C.ar    1  UNL1        0.0160
     17 C          60.6320   92.2197    3.5431 C.ar    1  UNL1        0.0510
     18 C          59.1812   92.4387    3.8550 C.ar    1  UNL1        0.0527
     19 C          58.5264   91.6641    4.9601 C.ar    1  UNL1        0.1532
     20 N          61.2868   92.9943    2.4379 N.pl3   1  UNL1       -0.3046
     21 C          62.7404   92.7838    2.1337 C.3     1  UNL1        0.1081
     22 C          63.3952   93.5583    1.0286 C.3     1  UNL1        0.0938
     23 N          62.5963   94.5434    0.2277 N.3     1  UNL1       -0.2686
     24 C          63.2511   95.3180   -0.8774 C.3     1  UNL1        0.0897
     25 C          61.1427   94.7539    0.5320 C.3     1  UNL1        0.0938
     26 C          60.4879   93.9793    1.6371 C.3     1  UNL1        0.1081
     27 O          57.0757   91.8831    5.2720 O.3     1  UNL1       -0.4701
     28 C          56.0846   90.7806    5.0435 C.3     1  UNL1        0.2525
     29 O          61.5623   88.7092   11.0073 O.3     1  UNL1       -0.4350
     30 C          64.4789   91.1209   12.2020 C.ar    1  UNL1        0.0496
     31 C          63.4848   89.9978   12.1879 C.ar    1  UNL1        0.0519
     32 C          62.5565   89.8324   11.0213 C.ar    1  UNL1        0.1485
     33 C          62.6225   90.7901    9.8687 C.ar    1  UNL1        0.0373
     34 C          63.6166   91.9132    9.8828 C.ar    1  UNL1        0.0001
     35 C          64.5449   92.0786   11.0495 C.ar    1  UNL1       -0.0082
     36 C          65.5390   93.2018   11.0635 C.3     1  UNL1        0.0323
     37 C          64.8509   91.4767   14.7486 C.2     1  UNL1        0.2496
     38 O          63.3663   91.5017   14.9619 O.2     1  UNL1       -0.2698
     39 N          65.4072   91.2863   13.3686 N.am    1  UNL1       -0.2805
     40 H          66.3815   91.2699   13.2286 H       1  UNL1        0.1552
     41 C          66.7662   92.7715   15.9340 C.2     1  UNL1        0.0048
     42 C          65.7791   91.6421   15.9152 C.2     1  UNL1        0.0580
@<TRIPOS>BOND
     1    41    42    2
     2    42    37    1
     3    37    38    2
     4    37    39   am
     5    39    30    1
     6    30    31   ar
     7    31    32   ar
     8    32    29    1
     9    29     1    1
    10     1     2   ar
    11     2     3   ar
    12     3    12    1
    13    12    14    1
    14    14    15   ar
    15    15    16   ar
    16    16    17   ar
    17    17    20    1
    18    20    21    1
    19    21    22    1
    20    22    23    1
    21    23    24    1
    22    23    25    1
    23    25    26    1
    24    17    18   ar
    25    18    19   ar
    26    19    27    1
    27    27    28    1
    28     3     4   ar
    29     4     5   ar
    30     5     6   ar
    31     6     7    1
    32     7     8    1
    33     8     9    1
    34     9    10    1
    35    10    11    1
    36    32    33   ar
    37    33    34   ar
    38    34    35   ar
    39    35    36    1
    40    35    30   ar
    41     6     1   ar
    42    11     7    1
    43    19    14   ar
    44    26    20    1
    45    39    40    1
    46    12    13    1
@<TRIPOS>MOLECULE
*****
 42 46 0 0 0
SMALL
GASTEIGER

@<TRIPOS>ATOM
      1 C          63.5604   84.9444   13.9319 C.ar    1  UNL1        0.2443
      2 N          63.7309   86.3632   14.3881 N.ar    1  UNL1       -0.1953
      3 C          63.2069   86.7884   15.7278 C.ar    1  UNL1        0.1354
      4 C          62.5123   85.7947   16.6111 C.ar    1  UNL1        0.0359
      5 C          62.3417   84.3761   16.1549 C.ar    1  UNL1        0.0221
      6 C          62.8658   83.9509   14.8153 C.ar    1  UNL1        0.1023
      7 N          62.6952   82.5321   14.3590 N.pl3   1  UNL1       -0.3039
      8 C          61.4093   81.7601   14.3421 C.3     1  UNL1        0.0910
      9 C          61.6999   80.3871   13.8122 C.3     1  UNL1        0.0232
     10 C          63.1655   80.3108   13.5017 C.3     1  UNL1        0.0232
     11 C          63.7806   81.6365   13.8396 C.3     1  UNL1        0.0910
     12 N          63.3774   88.2070   16.1840 N.pl3   1  UNL1       -0.2955
     13 H          63.1943   88.4482   17.1208 H       1  UNL1        0.1537
     14 C          63.8270   89.2582   15.2130 C.ar    1  UNL1        0.0839
     15 C          64.0042   88.9140   13.7638 C.ar    1  UNL1        0.0190
     16 C          64.4538   89.9652   12.7928 C.ar    1  UNL1        0.0160
     17 C          64.7261   91.3606   13.2710 C.ar    1  UNL1        0.0510
     18 C          64.5489   91.7048   14.7201 C.ar    1  UNL1        0.0527
     19 C          64.0993   90.6537   15.6912 C.ar    1  UNL1        0.1532
     20 N          65.1757   92.4119   12.2999 N.pl3   1  UNL1       -0.3046
     21 C          66.0084   93.5653   12.7756 C.3     1  UNL1        0.1081
     22 C          66.4580   94.6165   11.8047 C.3     1  UNL1        0.0938
     23 N          66.0748   94.5143   10.3581 N.3     1  UNL1       -0.2686
     24 C          66.5244   95.5656    9.3871 C.3     1  UNL1        0.0897
     25 C          65.2421   93.3609    9.8824 C.3     1  UNL1        0.0938
     26 C          64.7925   92.3097   10.8533 C.3     1  UNL1        0.1081
     27 O          63.9221   90.9979   17.1403 O.3     1  UNL1       -0.4701
     28 C          64.3637   92.3367   17.6526 C.3     1  UNL1        0.2525
     29 O          64.0844   84.5193   12.5922 O.3     1  UNL1       -0.4350
     30 C          61.5660   86.3455   10.1280 C.ar    1  UNL1        0.0496
     31 C          62.3140   85.9810   11.3760 C.ar    1  UNL1        0.0519
     32 C          63.3364   84.8838   11.3442 C.ar    1  UNL1        0.1485
     33 C          63.6107   84.1512   10.0643 C.ar    1  UNL1        0.0373
     34 C          62.8627   84.5157    8.8164 C.ar    1  UNL1        0.0001
     35 C          61.8403   85.6129    8.8482 C.ar    1  UNL1       -0.0082
     36 C          61.0923   85.9774    7.6001 C.3     1  UNL1        0.0323
     37 C          60.9814   88.8769   10.1273 C.2     1  UNL1        0.2496
     38 O          62.4417   89.2141   10.0631 O.2     1  UNL1       -0.2698
     39 N          60.5436   87.4427   10.1598 N.am    1  UNL1       -0.2805
     40 H          59.5852   87.2214   10.2020 H       1  UNL1        0.1552
     41 C          59.5455   90.5761   11.4694 C.2     1  UNL1        0.0048
     42 C          59.9591   89.9741   10.1591 C.2     1  UNL1        0.0580
@<TRIPOS>BOND
     1    41    42    2
     2    42    37    1
     3    37    38    2
     4    37    39   am
     5    39    30    1
     6    30    31   ar
     7    31    32   ar
     8    32    29    1
     9    29     1    1
    10     1     2   ar
    11     2     3   ar
    12     3    12    1
    13    12    14    1
    14    14    15   ar
    15    15    16   ar
    16    16    17   ar
    17    17    20    1
    18    20    21    1
    19    21    22    1
    20    22    23    1
    21    23    24    1
    22    23    25    1
    23    25    26    1
    24    17    18   ar
    25    18    19   ar
    26    19    27    1
    27    27    28    1
    28     3     4   ar
    29     4     5   ar
    30     5     6   ar
    31     6     7    1
    32     7     8    1
    33     8     9    1
    34     9    10    1
    35    10    11    1
    36    32    33   ar
    37    33    34   ar
    38    34    35   ar
    39    35    36    1
    40    35    30   ar
    41     6     1   ar
    42    11     7    1
    43    19    14   ar
    44    26    20    1
    45    39    40    1
    46    12    13    1
@<TRIPOS>MOLECULE
*****
 42 46 0 0 0
SMALL
GASTEIGER

@<TRIPOS>ATOM
      1 C          63.7870   86.1133   13.3621 C.ar    1  UNL1        0.2443
      2 N          63.9938   87.5724   13.6418 N.ar    1  UNL1       -0.1953
      3 C          63.9375   88.0811   15.0518 C.ar    1  UNL1        0.1354
      4 C          63.6743   87.1306   16.1821 C.ar    1  UNL1        0.0359
      5 C          63.4674   85.6716   15.9023 C.ar    1  UNL1        0.0221
      6 C          63.5238   85.1629   14.4923 C.ar    1  UNL1        0.1023
      7 N          63.3169   83.7037   14.2126 N.pl3   1  UNL1       -0.3039
      8 C          64.2520   82.8106   13.4524 C.3     1  UNL1        0.0910
      9 C          63.6516   81.4364   13.4139 C.3     1  UNL1        0.0232
     10 C          62.3456   81.4804   14.1504 C.3     1  UNL1        0.0232
     11 C          62.1387   82.8817   14.6440 C.3     1  UNL1        0.0910
     12 N          64.1444   89.5402   15.3315 N.pl3   1  UNL1       -0.2955
     13 H          63.9603   89.9002   16.2292 H       1  UNL1        0.1537
     14 C          64.6316   90.4506   14.2436 C.ar    1  UNL1        0.0839
     15 C          63.8360   90.6036   12.9812 C.ar    1  UNL1        0.0190
     16 C          64.3233   91.5142   11.8933 C.ar    1  UNL1        0.0160
     17 C          65.6061   92.2717   12.0678 C.ar    1  UNL1        0.0510
     18 C          66.4017   92.1187   13.3302 C.ar    1  UNL1        0.0527
     19 C          65.9144   91.2082   14.4181 C.ar    1  UNL1        0.1532
     20 N          66.0934   93.1822   10.9799 N.pl3   1  UNL1       -0.3046
     21 C          67.1897   92.7323   10.0603 C.3     1  UNL1        0.1081
     22 C          67.6770   93.6428    8.9724 C.3     1  UNL1        0.0938
     23 N          67.0680   95.0032    8.8041 N.3     1  UNL1       -0.2686
     24 C          67.5553   95.9137    7.7162 C.3     1  UNL1        0.0897
     25 C          65.9717   95.4531    9.7237 C.3     1  UNL1        0.0938
     26 C          65.4844   94.5427   10.8116 C.3     1  UNL1        0.1081
     27 O          66.7100   91.0553   15.6805 O.3     1  UNL1       -0.4701
     28 C          67.7312   92.0888   16.0534 C.3     1  UNL1        0.2525
     29 O          63.8433   85.6046   11.9521 O.3     1  UNL1       -0.4350
     30 C          60.5386   87.1989   10.4399 C.ar    1  UNL1        0.0496
     31 C          61.6457   86.8751   11.3987 C.ar    1  UNL1        0.0519
     32 C          62.7362   85.9284   10.9932 C.ar    1  UNL1        0.1485
     33 C          62.7196   85.3054    9.6288 C.ar    1  UNL1        0.0373
     34 C          61.6125   85.6292    8.6699 C.ar    1  UNL1        0.0001
     35 C          60.5220   86.5760    9.0755 C.ar    1  UNL1       -0.0082
     36 C          59.4149   86.8998    8.1165 C.3     1  UNL1        0.0323
     37 C          59.7537   89.2937   11.7612 C.2     1  UNL1        0.2496
     38 O          61.1498   89.4949   12.2715 O.2     1  UNL1       -0.2698
     39 N          59.4481   88.1457   10.8454 N.am    1  UNL1       -0.2805
     40 H          58.5318   88.0136   10.5105 H       1  UNL1        0.1552
     41 C          58.6052   91.6165   11.5724 C.2     1  UNL1        0.0048
     42 C          58.6631   90.2404   12.1667 C.2     1  UNL1        0.0580
@<TRIPOS>BOND
     1    41    42    2
     2    42    37    1
     3    37    38    2
     4    37    39   am
     5    39    30    1
     6    30    31   ar
     7    31    32   ar
     8    32    29    1
     9    29     1    1
    10     1     2   ar
    11     2     3   ar
    12     3    12    1
    13    12    14    1
    14    14    15   ar
    15    15    16   ar
    16    16    17   ar
    17    17    20    1
    18    20    21    1
    19    21    22    1
    20    22    23    1
    21    23    24    1
    22    23    25    1
    23    25    26    1
    24    17    18   ar
    25    18    19   ar
    26    19    27    1
    27    27    28    1
    28     3     4   ar
    29     4     5   ar
    30     5     6   ar
    31     6     7    1
    32     7     8    1
    33     8     9    1
    34     9    10    1
    35    10    11    1
    36    32    33   ar
    37    33    34   ar
    38    34    35   ar
    39    35    36    1
    40    35    30   ar
    41     6     1   ar
    42    11     7    1
    43    19    14   ar
    44    26    20    1
    45    39    40    1
    46    12    13    1
@<TRIPOS>MOLECULE
*****
 42 46 0 0 0
SMALL
GASTEIGER

@<TRIPOS>ATOM
      1 C          64.2872   91.4536   11.9433 C.ar    1  UNL1        0.2443
      2 N          63.8133   90.5223   13.0195 N.ar    1  UNL1       -0.1953
      3 C          64.5551   90.4406   14.3207 C.ar    1  UNL1        0.1354
      4 C          65.7706   91.2903   14.5457 C.ar    1  UNL1        0.0359
      5 C          66.2444   92.2216   13.4695 C.ar    1  UNL1        0.0221
      6 C          65.5026   92.3032   12.1683 C.ar    1  UNL1        0.1023
      7 N          65.9765   93.2345   11.0920 N.pl3   1  UNL1       -0.3039
      8 C          67.0047   92.9220   10.0456 C.3     1  UNL1        0.0910
      9 C          67.1690   94.1362    9.1801 C.3     1  UNL1        0.0232
     10 C          66.2422   95.1990    9.6917 C.3     1  UNL1        0.0232
     11 C          65.5052   94.6417   10.8733 C.3     1  UNL1        0.0910
     12 N          64.0813   89.5094   15.3970 N.pl3   1  UNL1       -0.2955
     13 H          63.9166   89.8505   16.3057 H       1  UNL1        0.1537
     14 C          63.8586   88.0584   15.0886 C.ar    1  UNL1        0.0839
     15 C          64.1281   87.5349   13.7091 C.ar    1  UNL1        0.0190
     16 C          63.9053   86.0838   13.4008 C.ar    1  UNL1        0.0160
     17 C          63.4131   85.1565   14.4720 C.ar    1  UNL1        0.0510
     18 C          63.1436   85.6801   15.8516 C.ar    1  UNL1        0.0527
     19 C          63.3663   87.1310   16.1599 C.ar    1  UNL1        0.1532
     20 N          63.1903   83.7054   14.1638 N.pl3   1  UNL1       -0.3046
     21 C          64.1564   82.9687   13.2841 C.3     1  UNL1        0.1081
     22 C          63.9337   81.5177   12.9758 C.3     1  UNL1        0.0938
     23 N          62.7448   80.8036   13.5472 N.3     1  UNL1       -0.2686
     24 C          62.5221   79.3525   13.2389 C.3     1  UNL1        0.0897
     25 C          61.7787   81.5403   14.4268 C.3     1  UNL1        0.0938
     26 C          62.0014   82.9913   14.7351 C.3     1  UNL1        0.1081
     27 O          63.0968   87.6546   17.5395 O.3     1  UNL1       -0.4701
     28 C          62.6818   86.7133   18.6311 C.3     1  UNL1        0.2525
     29 O          63.5454   91.5352   10.6421 O.3     1  UNL1       -0.4350
     30 C          60.5908   89.5082    8.9357 C.ar    1  UNL1        0.0496
     31 C          61.4525   90.6524    9.3808 C.ar    1  UNL1        0.0519
     32 C          62.6836   90.3909   10.1970 C.ar    1  UNL1        0.1485
     33 C          63.0529   88.9853   10.5680 C.ar    1  UNL1        0.0373
     34 C          62.1912   87.8411   10.1229 C.ar    1  UNL1        0.0001
     35 C          60.9601   88.1026    9.3068 C.ar    1  UNL1       -0.0082
     36 C          60.0983   86.9583    8.8617 C.3     1  UNL1        0.0323
     37 C          59.4788   90.0470    6.6503 C.2     1  UNL1        0.2496
     38 O          60.8290   90.0628    5.9971 O.2     1  UNL1       -0.2698
     39 N          59.3597   89.7697    8.1196 N.am    1  UNL1       -0.2805
     40 H          58.4735   89.7593    8.5483 H       1  UNL1        0.1552
     41 C          58.1553   91.5461    4.9917 C.2     1  UNL1        0.0048
     42 C          58.2477   90.3085    5.8342 C.2     1  UNL1        0.0580
@<TRIPOS>BOND
     1    41    42    2
     2    42    37    1
     3    37    38    2
     4    37    39   am
     5    39    30    1
     6    30    31   ar
     7    31    32   ar
     8    32    29    1
     9    29     1    1
    10     1     2   ar
    11     2     3   ar
    12     3    12    1
    13    12    14    1
    14    14    15   ar
    15    15    16   ar
    16    16    17   ar
    17    17    20    1
    18    20    21    1
    19    21    22    1
    20    22    23    1
    21    23    24    1
    22    23    25    1
    23    25    26    1
    24    17    18   ar
    25    18    19   ar
    26    19    27    1
    27    27    28    1
    28     3     4   ar
    29     4     5   ar
    30     5     6   ar
    31     6     7    1
    32     7     8    1
    33     8     9    1
    34     9    10    1
    35    10    11    1
    36    32    33   ar
    37    33    34   ar
    38    34    35   ar
    39    35    36    1
    40    35    30   ar
    41     6     1   ar
    42    11     7    1
    43    19    14   ar
    44    26    20    1
    45    39    40    1
    46    12    13    1
