@<TRIPOS>MOLECULE
*****
 29 32 0 0 0
SMALL
GASTEIGER

@<TRIPOS>ATOM
      1 C          63.7402   88.1036   15.7438 C.ar    1  UNL1        0.0284
      2 C          64.5026   87.5643   14.5700 C.ar    1  UNL1        0.0027
      3 C          64.7141   86.0861   14.4280 C.ar    1  UNL1        0.0339
      4 C          64.1632   85.1471   15.4599 C.ar    1  UNL1        0.1311
      5 N          63.4008   85.6864   16.6338 N.ar    1  UNL1       -0.2035
      6 C          63.1892   87.1646   16.7757 C.ar    1  UNL1        0.2196
      7 F          62.4268   87.7038   17.9496 F       1  UNL1       -0.1835
      8 N          64.3748   83.6689   15.3179 N.pl3   1  UNL1       -0.3144
      9 H          65.0426   83.2112   15.8780 H       1  UNL1        0.1485
     10 C          63.5687   82.8881   14.3226 C.3     1  UNL1        0.1154
     11 C          63.4940   83.3437   12.8954 C.ar    1  UNL1       -0.0025
     12 C          64.3894   82.7256   11.8629 C.ar    1  UNL1       -0.0018
     13 C          64.3147   83.1812   10.4357 C.ar    1  UNL1        0.0111
     14 C          63.3445   84.2551   10.0411 C.ar    1  UNL1        0.0577
     15 CL         63.2698   84.7107    8.6139 Cl      1  UNL1       -0.0822
     16 C          62.4491   84.8732   11.0737 C.ar    1  UNL1        0.0111
     17 C          62.5239   84.4175   12.5008 C.ar    1  UNL1       -0.0018
     18 C          63.5286   89.5818   15.8858 C.3     1  UNL1        0.0603
     19 C          62.6005   90.2409   11.1507 C.2     1  UNL1        0.1673
     20 C          63.4555   91.3072   10.5328 C.2     1  UNL1        0.2683
     21 N          64.4635   92.0385   11.3690 N.2     1  UNL1       -0.0278
     22 C          64.6165   91.7035   12.8230 C.2     1  UNL1        0.3719
     23 N          65.5181   92.2506   13.8896 N.2     1  UNL1       -0.0311
     24 C          65.2204   91.5224   15.1668 C.2     1  UNL1        0.2319
     25 C          64.1347   90.5252   14.8895 C.2     1  UNL1        0.0329
     26 C          63.7614   90.6372   13.4409 C.2     1  UNL1        0.0739
     27 C          62.7534   89.9059   12.6048 C.3     1  UNL1        0.1019
     28 C          60.1966   90.0433   10.1851 C.3     1  UNL1        0.2522
     29 O          61.5924   89.5096   10.3146 O.2     1  UNL1       -0.4715
@<TRIPOS>BOND
     1    28    29    1
     2    29    19    1
     3    19    20    2
     4    20    21    1
     5    21    22    2
     6    22    23    1
     7    23    24    2
     8    24    25    1
     9    25    18    1
    10    18     1    1
    11     1     2   ar
    12     2     3   ar
    13     3     4   ar
    14     4     8    1
    15     8    10    1
    16    10    11    1
    17    11    12   ar
    18    12    13   ar
    19    13    14   ar
    20    14    15    1
    21    14    16   ar
    22    16    17   ar
    23     4     5   ar
    24     5     6   ar
    25     6     7    1
    26    25    26    2
    27    26    27    1
    28    27    19    1
    29    26    22    1
    30     6     1   ar
    31    17    11   ar
    32     8     9    1
@<TRIPOS>MOLECULE
*****
 29 32 0 0 0
SMALL
GASTEIGER

@<TRIPOS>ATOM
      1 C          62.3004   88.3700   11.3269 C.ar    1  UNL1        0.0284
      2 C          63.1216   88.2330   12.5746 C.ar    1  UNL1        0.0027
      3 C          63.8725   89.4151   13.1119 C.ar    1  UNL1        0.0339
      4 C          63.8022   90.7344   12.4015 C.ar    1  UNL1        0.1311
      5 N          62.9808   90.8713   11.1537 N.ar    1  UNL1       -0.2035
      6 C          62.2299   89.6892   10.6165 C.ar    1  UNL1        0.2196
      7 F          61.4087   89.8263    9.3688 F       1  UNL1       -0.1835
      8 N          64.5530   91.9165   12.9387 N.pl3   1  UNL1       -0.3144
      9 H          64.0891   92.5826   13.4958 H       1  UNL1        0.1485
     10 C          66.0108   92.0837   12.6273 C.3     1  UNL1        0.1154
     11 C          66.4447   93.0500   11.5652 C.ar    1  UNL1       -0.0025
     12 C          66.1227   94.5086   11.7013 C.ar    1  UNL1       -0.0018
     13 C          66.5567   95.4749   10.6392 C.ar    1  UNL1        0.0111
     14 C          67.3126   94.9824    9.4409 C.ar    1  UNL1        0.0577
     15 CL         67.7466   95.9486    8.3788 Cl      1  UNL1       -0.0822
     16 C          67.6346   93.5237    9.3047 C.ar    1  UNL1        0.0111
     17 C          67.2007   92.5575   10.3668 C.ar    1  UNL1       -0.0018
     18 C          61.5495   87.1878   10.7897 C.3     1  UNL1        0.0603
     19 C          63.7173   83.3015   12.7678 C.2     1  UNL1        0.1673
     20 C          64.3524   82.4060   11.7457 C.2     1  UNL1        0.2683
     21 N          64.2742   82.7565   10.2894 N.2     1  UNL1       -0.0278
     22 C          63.5608   84.0024    9.8551 C.2     1  UNL1        0.3719
     23 N          63.3224   84.6023    8.5011 N.2     1  UNL1       -0.0311
     24 C          62.5399   85.8686    8.6864 C.2     1  UNL1        0.2319
     25 C          62.2947   86.0513   10.1549 C.2     1  UNL1        0.0329
     26 C          62.9257   84.8979   10.8772 C.2     1  UNL1        0.0739
     27 C          63.0040   84.5474   12.3335 C.3     1  UNL1        0.1019
     28 C          63.2966   83.9183   15.2563 C.3     1  UNL1        0.2522
     29 O          63.7955   82.9510   14.2242 O.2     1  UNL1       -0.4715
@<TRIPOS>BOND
     1    28    29    1
     2    29    19    1
     3    19    20    2
     4    20    21    1
     5    21    22    2
     6    22    23    1
     7    23    24    2
     8    24    25    1
     9    25    18    1
    10    18     1    1
    11     1     2   ar
    12     2     3   ar
    13     3     4   ar
    14     4     8    1
    15     8    10    1
    16    10    11    1
    17    11    12   ar
    18    12    13   ar
    19    13    14   ar
    20    14    15    1
    21    14    16   ar
    22    16    17   ar
    23     4     5   ar
    24     5     6   ar
    25     6     7    1
    26    25    26    2
    27    26    27    1
    28    27    19    1
    29    26    22    1
    30     6     1   ar
    31    17    11   ar
    32     8     9    1
@<TRIPOS>MOLECULE
*****
 29 32 0 0 0
SMALL
GASTEIGER

@<TRIPOS>ATOM
      1 C          63.9185   87.6245   15.5546 C.ar    1  UNL1        0.0284
      2 C          64.7592   86.9600   14.5051 C.ar    1  UNL1        0.0027
      3 C          64.8064   85.4632   14.4187 C.ar    1  UNL1        0.0339
      4 C          64.0128   84.6309   15.3819 C.ar    1  UNL1        0.1311
      5 N          63.1720   85.2956   16.4314 N.ar    1  UNL1       -0.2035
      6 C          63.1248   86.7924   16.5178 C.ar    1  UNL1        0.2196
      7 F          62.2840   87.4569   17.5673 F       1  UNL1       -0.1835
      8 N          64.0600   83.1342   15.2955 N.pl3   1  UNL1       -0.3144
      9 H          64.5476   82.6169   15.9766 H       1  UNL1        0.1485
     10 C          63.3643   82.4255   14.1713 C.3     1  UNL1        0.1154
     11 C          63.3611   83.0234   12.7956 C.ar    1  UNL1       -0.0025
     12 C          62.4261   84.1501   12.4696 C.ar    1  UNL1       -0.0018
     13 C          62.4230   84.7480   11.0939 C.ar    1  UNL1        0.0111
     14 C          63.3550   84.2192   10.0442 C.ar    1  UNL1        0.0577
     15 CL         63.3518   84.8171    8.6685 Cl      1  UNL1       -0.0822
     16 C          64.2900   83.0924   10.3703 C.ar    1  UNL1        0.0111
     17 C          64.2931   82.4946   11.7459 C.ar    1  UNL1       -0.0018
     18 C          63.8713   89.1213   15.6410 C.3     1  UNL1        0.0603
     19 C          67.0907   92.2902   13.8217 C.2     1  UNL1        0.1673
     20 C          66.6434   92.8939   12.5234 C.2     1  UNL1        0.2683
     21 N          65.3249   92.4987   11.9274 N.2     1  UNL1       -0.0278
     22 C          64.4536   91.4999   12.6296 C.2     1  UNL1        0.3719
     23 N          63.1129   90.9210   12.2867 N.2     1  UNL1       -0.0311
     24 C          62.7316   89.9595   13.3731 C.2     1  UNL1        0.2319
     25 C          63.8366   89.9442   14.3873 C.2     1  UNL1        0.0329
     26 C          64.9008   90.8962   13.9278 C.2     1  UNL1        0.0739
     27 C          66.2194   91.2913   14.5238 C.3     1  UNL1        0.1019
     28 C          68.5692   92.7510   15.9077 C.3     1  UNL1        0.2522
     29 O          68.4092   92.6853   14.4177 O.2     1  UNL1       -0.4715
@<TRIPOS>BOND
     1    28    29    1
     2    29    19    1
     3    19    20    2
     4    20    21    1
     5    21    22    2
     6    22    23    1
     7    23    24    2
     8    24    25    1
     9    25    18    1
    10    18     1    1
    11     1     2   ar
    12     2     3   ar
    13     3     4   ar
    14     4     8    1
    15     8    10    1
    16    10    11    1
    17    11    12   ar
    18    12    13   ar
    19    13    14   ar
    20    14    15    1
    21    14    16   ar
    22    16    17   ar
    23     4     5   ar
    24     5     6   ar
    25     6     7    1
    26    25    26    2
    27    26    27    1
    28    27    19    1
    29    26    22    1
    30     6     1   ar
    31    17    11   ar
    32     8     9    1
@<TRIPOS>MOLECULE
*****
 29 32 0 0 0
SMALL
GASTEIGER

@<TRIPOS>ATOM
      1 C          63.1261   84.4839   10.3007 C.ar    1  UNL1        0.0284
      2 C          62.3178   85.2139   11.3320 C.ar    1  UNL1        0.0027
      3 C          62.4100   84.8177   12.7757 C.ar    1  UNL1        0.0339
      4 C          63.3107   83.6914   13.1883 C.ar    1  UNL1        0.1311
      5 N          64.1191   82.9613   12.1569 N.ar    1  UNL1       -0.2035
      6 C          64.0269   83.3576   10.7132 C.ar    1  UNL1        0.2196
      7 F          64.8353   82.6275    9.6820 F       1  UNL1       -0.1835
      8 N          63.4030   83.2951   14.6320 N.pl3   1  UNL1       -0.3144
      9 H          62.8972   82.5178   14.9625 H       1  UNL1        0.1485
     10 C          64.2659   84.0832   15.5724 C.3     1  UNL1        0.1154
     11 C          63.9902   85.5398   15.8009 C.ar    1  UNL1       -0.0025
     12 C          63.1518   85.9705   16.9678 C.ar    1  UNL1       -0.0018
     13 C          62.8761   87.4271   17.1964 C.ar    1  UNL1        0.0111
     14 C          63.4388   88.4532   16.2580 C.ar    1  UNL1        0.0577
     15 CL         63.1631   89.9098   16.4865 Cl      1  UNL1       -0.0822
     16 C          64.2772   88.0225   15.0910 C.ar    1  UNL1        0.0111
     17 C          64.5529   86.5659   14.8626 C.ar    1  UNL1       -0.0018
     18 C          63.0339   84.8802    8.8569 C.3     1  UNL1        0.0603
     19 C          61.4224   89.3493    9.9275 C.2     1  UNL1        0.1673
     20 C          60.1666   89.7076    9.1895 C.2     1  UNL1        0.2683
     21 N          59.5471   88.7240    8.2415 N.2     1  UNL1       -0.0278
     22 C          60.1834   87.3820    8.0315 C.2     1  UNL1        0.3719
     23 N          59.8047   86.2157    7.1676 N.2     1  UNL1       -0.0311
     24 C          60.8264   85.1366    7.3717 C.2     1  UNL1        0.2319
     25 C          61.8366   85.6359    8.3617 C.2     1  UNL1        0.0329
     26 C          61.4392   87.0237    8.7695 C.2     1  UNL1        0.0739
     27 C          62.0586   88.0073    9.7175 C.3     1  UNL1        0.1019
     28 C          63.1809   91.1969   10.4215 C.3     1  UNL1        0.2522
     29 O          62.0418   90.3330   10.8755 O.2     1  UNL1       -0.4715
@<TRIPOS>BOND
     1    28    29    1
     2    29    19    1
     3    19    20    2
     4    20    21    1
     5    21    22    2
     6    22    23    1
     7    23    24    2
     8    24    25    1
     9    25    18    1
    10    18     1    1
    11     1     2   ar
    12     2     3   ar
    13     3     4   ar
    14     4     8    1
    15     8    10    1
    16    10    11    1
    17    11    12   ar
    18    12    13   ar
    19    13    14   ar
    20    14    15    1
    21    14    16   ar
    22    16    17   ar
    23     4     5   ar
    24     5     6   ar
    25     6     7    1
    26    25    26    2
    27    26    27    1
    28    27    19    1
    29    26    22    1
    30     6     1   ar
    31    17    11   ar
    32     8     9    1
@<TRIPOS>MOLECULE
*****
 29 32 0 0 0
SMALL
GASTEIGER

@<TRIPOS>ATOM
      1 C          62.6908   85.0005    9.8156 C.ar    1  UNL1        0.0284
      2 C          61.9892   85.5288   11.0315 C.ar    1  UNL1        0.0027
      3 C          61.0598   86.7000   10.9116 C.ar    1  UNL1        0.0339
      4 C          60.8319   87.3430    9.5757 C.ar    1  UNL1        0.1311
      5 N          61.5336   86.8147    8.3597 N.ar    1  UNL1       -0.2035
      6 C          62.4630   85.6434    8.4796 C.ar    1  UNL1        0.2196
      7 F          63.1646   85.1152    7.2636 F       1  UNL1       -0.1835
      8 N          59.9025   88.5142    9.4558 N.pl3   1  UNL1       -0.3144
      9 H          58.9387   88.3660    9.3202 H       1  UNL1        0.1485
     10 C          60.4416   89.9113    9.5425 C.3     1  UNL1        0.1154
     11 C          61.5505   90.2292   10.5011 C.ar    1  UNL1       -0.0025
     12 C          61.4340   89.8293   11.9421 C.ar    1  UNL1       -0.0018
     13 C          62.5430   90.1472   12.9008 C.ar    1  UNL1        0.0111
     14 C          63.7686   90.8650   12.4185 C.ar    1  UNL1        0.0577
     15 CL         64.8776   91.1829   13.3772 Cl      1  UNL1       -0.0822
     16 C          63.8851   91.2650   10.9775 C.ar    1  UNL1        0.0111
     17 C          62.7762   90.9471   10.0189 C.ar    1  UNL1       -0.0018
     18 C          63.6202   83.8292    9.9355 C.3     1  UNL1        0.0603
     19 C          64.2958   84.5747   14.7004 C.2     1  UNL1        0.1673
     20 C          64.0650   83.3406   15.5212 C.2     1  UNL1        0.2683
     21 N          63.6699   82.0577   14.8518 N.2     1  UNL1       -0.0278
     22 C          63.5056   82.0089   13.3617 C.2     1  UNL1        0.3719
     23 N          63.1270   80.8963   12.4295 N.2     1  UNL1       -0.0311
     24 C          63.1239   81.4428   11.0326 C.2     1  UNL1        0.2319
     25 C          63.5005   82.8931   11.1014 C.2     1  UNL1        0.0329
     26 C          63.7364   83.2430   12.5409 C.2     1  UNL1        0.0739
     27 C          64.1315   84.5259   13.2102 C.3     1  UNL1        0.1019
     28 C          64.3985   87.1707   14.7064 C.3     1  UNL1        0.2522
     29 O          64.6910   85.8576   15.3697 O.2     1  UNL1       -0.4715
@<TRIPOS>BOND
     1    28    29    1
     2    29    19    1
     3    19    20    2
     4    20    21    1
     5    21    22    2
     6    22    23    1
     7    23    24    2
     8    24    25    1
     9    25    18    1
    10    18     1    1
    11     1     2   ar
    12     2     3   ar
    13     3     4   ar
    14     4     8    1
    15     8    10    1
    16    10    11    1
    17    11    12   ar
    18    12    13   ar
    19    13    14   ar
    20    14    15    1
    21    14    16   ar
    22    16    17   ar
    23     4     5   ar
    24     5     6   ar
    25     6     7    1
    26    25    26    2
    27    26    27    1
    28    27    19    1
    29    26    22    1
    30     6     1   ar
    31    17    11   ar
    32     8     9    1
@<TRIPOS>MOLECULE
*****
 29 32 0 0 0
SMALL
GASTEIGER

@<TRIPOS>ATOM
      1 C          62.4341   88.8873   11.1809 C.ar    1  UNL1        0.0284
      2 C          62.2286   89.8381   10.0391 C.ar    1  UNL1        0.0027
      3 C          62.9371   91.1602   10.0272 C.ar    1  UNL1        0.0339
      4 C          63.8510   91.5316   11.1571 C.ar    1  UNL1        0.1311
      5 N          64.0565   90.5808   12.2990 N.ar    1  UNL1       -0.2035
      6 C          63.3481   89.2587   12.3109 C.ar    1  UNL1        0.2196
      7 F          63.5536   88.3080   13.4528 F       1  UNL1       -0.1835
      8 N          64.5595   92.8537   11.1451 N.pl3   1  UNL1       -0.3144
      9 H          64.0405   93.6901   11.1252 H       1  UNL1        0.1485
     10 C          66.0586   92.9015   11.1635 C.3     1  UNL1        0.1154
     11 C          66.7958   92.8124   12.4668 C.ar    1  UNL1       -0.0025
     12 C          67.9381   91.8521   12.6183 C.ar    1  UNL1       -0.0018
     13 C          68.6754   91.7631   13.9216 C.ar    1  UNL1        0.0111
     14 C          68.2703   92.6343   15.0735 C.ar    1  UNL1        0.0577
     15 CL         69.0075   92.5453   16.3768 Cl      1  UNL1       -0.0822
     16 C          67.1279   93.5947   14.9220 C.ar    1  UNL1        0.0111
     17 C          66.3907   93.6836   13.6187 C.ar    1  UNL1       -0.0018
     18 C          61.7257   87.5653   11.1929 C.3     1  UNL1        0.0603
     19 C          63.6378   83.3787   12.7843 C.2     1  UNL1        0.1673
     20 C          64.0954   82.4864   11.6688 C.2     1  UNL1        0.2683
     21 N          63.9377   82.9267   10.2435 N.2     1  UNL1       -0.0278
     22 C          63.3224   84.2591    9.9338 C.2     1  UNL1        0.3719
     23 N          63.0393   84.9567    8.6365 N.2     1  UNL1       -0.0311
     24 C          62.4067   86.2802    8.9502 C.2     1  UNL1        0.2319
     25 C          62.2988   86.4004   10.4415 C.2     1  UNL1        0.0329
     26 C          62.8648   85.1513   11.0494 C.2     1  UNL1        0.0739
     27 C          63.0224   84.7111   12.4746 C.3     1  UNL1        0.1019
     28 C          62.7729   83.3324   15.2338 C.3     1  UNL1        0.2522
     29 O          63.7955   82.9384   14.2096 O.2     1  UNL1       -0.4715
@<TRIPOS>BOND
     1    28    29    1
     2    29    19    1
     3    19    20    2
     4    20    21    1
     5    21    22    2
     6    22    23    1
     7    23    24    2
     8    24    25    1
     9    25    18    1
    10    18     1    1
    11     1     2   ar
    12     2     3   ar
    13     3     4   ar
    14     4     8    1
    15     8    10    1
    16    10    11    1
    17    11    12   ar
    18    12    13   ar
    19    13    14   ar
    20    14    15    1
    21    14    16   ar
    22    16    17   ar
    23     4     5   ar
    24     5     6   ar
    25     6     7    1
    26    25    26    2
    27    26    27    1
    28    27    19    1
    29    26    22    1
    30     6     1   ar
    31    17    11   ar
    32     8     9    1
@<TRIPOS>MOLECULE
*****
 29 32 0 0 0
SMALL
GASTEIGER

@<TRIPOS>ATOM
      1 C          63.6580   84.5786   14.5547 C.ar    1  UNL1        0.0284
      2 C          64.6070   85.7002   14.2523 C.ar    1  UNL1        0.0027
      3 C          64.5296   86.9791   15.0323 C.ar    1  UNL1        0.0339
      4 C          63.5031   87.1365   16.1147 C.ar    1  UNL1        0.1311
      5 N          62.5541   86.0148   16.4171 N.ar    1  UNL1       -0.2035
      6 C          62.6315   84.7359   15.6372 C.ar    1  UNL1        0.2196
      7 F          61.6825   83.6144   15.9396 F       1  UNL1       -0.1835
      8 N          63.4256   88.4154   16.8946 N.pl3   1  UNL1       -0.3144
      9 H          63.7529   88.4467   17.8226 H       1  UNL1        0.1485
     10 C          62.8496   89.6467   16.2606 C.3     1  UNL1        0.1154
     11 C          63.5740   90.3180   15.1317 C.ar    1  UNL1       -0.0025
     12 C          64.7856   91.1569   15.4114 C.ar    1  UNL1       -0.0018
     13 C          65.5101   91.8282   14.2825 C.ar    1  UNL1        0.0111
     14 C          65.0229   91.6607   12.8737 C.ar    1  UNL1        0.0577
     15 CL         65.7473   92.3320   11.7448 Cl      1  UNL1       -0.0822
     16 C          63.8111   90.8218   12.5940 C.ar    1  UNL1        0.0111
     17 C          63.0868   90.1505   13.7229 C.ar    1  UNL1       -0.0018
     18 C          63.7355   83.2996   13.7748 C.3     1  UNL1        0.0603
     19 C          61.6109   86.1639   10.4584 C.2     1  UNL1        0.1673
     20 C          62.0435   85.8514    9.0566 C.2     1  UNL1        0.2683
     21 N          63.0325   84.7522    8.8042 N.2     1  UNL1       -0.0278
     22 C          63.5889   83.9655    9.9537 C.2     1  UNL1        0.3719
     23 N          64.5711   82.8334   10.0132 N.2     1  UNL1       -0.0311
     24 C          64.7456   82.4461   11.4518 C.2     1  UNL1        0.2319
     25 C          63.8712   83.3389   12.2815 C.2     1  UNL1        0.0329
     26 C          63.1563   84.2780   11.3556 C.2     1  UNL1        0.0739
     27 C          62.1673   85.3772   11.6079 C.3     1  UNL1        0.1019
     28 C          60.5264   88.4189    9.7595 C.3     1  UNL1        0.2522
     29 O          60.6219   87.2631   10.7107 O.2     1  UNL1       -0.4715
@<TRIPOS>BOND
     1    28    29    1
     2    29    19    1
     3    19    20    2
     4    20    21    1
     5    21    22    2
     6    22    23    1
     7    23    24    2
     8    24    25    1
     9    25    18    1
    10    18     1    1
    11     1     2   ar
    12     2     3   ar
    13     3     4   ar
    14     4     8    1
    15     8    10    1
    16    10    11    1
    17    11    12   ar
    18    12    13   ar
    19    13    14   ar
    20    14    15    1
    21    14    16   ar
    22    16    17   ar
    23     4     5   ar
    24     5     6   ar
    25     6     7    1
    26    25    26    2
    27    26    27    1
    28    27    19    1
    29    26    22    1
    30     6     1   ar
    31    17    11   ar
    32     8     9    1
@<TRIPOS>MOLECULE
*****
 29 32 0 0 0
SMALL
GASTEIGER

@<TRIPOS>ATOM
      1 C          62.9904   84.8149    9.7274 C.ar    1  UNL1        0.0284
      2 C          63.9662   83.7088    9.4545 C.ar    1  UNL1        0.0027
      3 C          64.1312   82.5932   10.4435 C.ar    1  UNL1        0.0339
      4 C          63.3204   82.5835   11.7054 C.ar    1  UNL1        0.1311
      5 N          62.3446   83.6896   11.9783 N.ar    1  UNL1       -0.2035
      6 C          62.1796   84.8053   10.9894 C.ar    1  UNL1        0.2196
      7 F          61.2038   85.9113   11.2624 F       1  UNL1       -0.1835
      8 N          63.4855   81.4679   12.6944 N.pl3   1  UNL1       -0.3144
      9 H          63.2399   80.5479   12.4442 H       1  UNL1        0.1485
     10 C          64.0246   81.7539   14.0646 C.3     1  UNL1        0.1154
     11 C          63.8990   83.1302   14.6477 C.ar    1  UNL1       -0.0025
     12 C          64.9632   84.1549   14.3879 C.ar    1  UNL1       -0.0018
     13 C          64.8375   85.5311   14.9711 C.ar    1  UNL1        0.0111
     14 C          63.6477   85.8828   15.8141 C.ar    1  UNL1        0.0577
     15 CL         63.5221   87.2591   16.3972 Cl      1  UNL1       -0.0822
     16 C          62.5835   84.8580   16.0739 C.ar    1  UNL1        0.0111
     17 C          62.7092   83.4818   15.4907 C.ar    1  UNL1       -0.0018
     18 C          62.8254   85.9305    8.7384 C.3     1  UNL1        0.0603
     19 C          62.2125   90.1495   11.0923 C.2     1  UNL1        0.1673
     20 C          60.8414   90.7278   10.9033 C.2     1  UNL1        0.2683
     21 N          59.8332   90.0067   10.0586 N.2     1  UNL1       -0.0278
     22 C          60.1961   88.7074    9.4028 C.2     1  UNL1        0.3719
     23 N          59.4181   87.7766    8.5206 N.2     1  UNL1       -0.0311
     24 C          60.3083   86.6231    8.1643 C.2     1  UNL1        0.2319
     25 C          61.6365   86.8409    8.8264 C.2     1  UNL1        0.0329
     26 C          61.5671   88.1291    9.5919 C.2     1  UNL1        0.0739
     27 C          62.5753   88.8502   10.4366 C.3     1  UNL1        0.1019
     28 C          63.6261   90.3066   13.2665 C.3     1  UNL1        0.2522
     29 O          63.2207   90.8706   11.9370 O.2     1  UNL1       -0.4715
@<TRIPOS>BOND
     1    28    29    1
     2    29    19    1
     3    19    20    2
     4    20    21    1
     5    21    22    2
     6    22    23    1
     7    23    24    2
     8    24    25    1
     9    25    18    1
    10    18     1    1
    11     1     2   ar
    12     2     3   ar
    13     3     4   ar
    14     4     8    1
    15     8    10    1
    16    10    11    1
    17    11    12   ar
    18    12    13   ar
    19    13    14   ar
    20    14    15    1
    21    14    16   ar
    22    16    17   ar
    23     4     5   ar
    24     5     6   ar
    25     6     7    1
    26    25    26    2
    27    26    27    1
    28    27    19    1
    29    26    22    1
    30     6     1   ar
    31    17    11   ar
    32     8     9    1
@<TRIPOS>MOLECULE
*****
 29 32 0 0 0
SMALL
GASTEIGER

@<TRIPOS>ATOM
      1 C          63.6807   86.3893   15.6320 C.ar    1  UNL1        0.0284
      2 C          64.3975   87.1663   14.5679 C.ar    1  UNL1        0.0027
      3 C          64.4020   88.6657   14.6085 C.ar    1  UNL1        0.0339
      4 C          63.6895   89.3882   15.7133 C.ar    1  UNL1        0.1311
      5 N          62.9727   88.6111   16.7774 N.ar    1  UNL1       -0.2035
      6 C          62.9682   87.1116   16.7368 C.ar    1  UNL1        0.2196
      7 F          62.2514   86.3347   17.8009 F       1  UNL1       -0.1835
      8 N          63.6940   90.8876   15.7539 N.pl3   1  UNL1       -0.3144
      9 H          62.8455   91.3804   15.8345 H       1  UNL1        0.1485
     10 C          64.9912   91.6363   15.6719 C.3     1  UNL1        0.1154
     11 C          65.6605   91.8336   14.3441 C.ar    1  UNL1       -0.0025
     12 C          64.8339   92.0766   13.1162 C.ar    1  UNL1       -0.0018
     13 C          65.5032   92.2739   11.7884 C.ar    1  UNL1        0.0111
     14 C          66.9992   92.2283   11.6884 C.ar    1  UNL1        0.0577
     15 CL         67.6685   92.4257   10.3606 Cl      1  UNL1       -0.0822
     16 C          67.8258   91.9854   12.9164 C.ar    1  UNL1        0.0111
     17 C          67.1565   91.7880   14.2441 C.ar    1  UNL1       -0.0018
     18 C          63.6763   84.8898   15.5913 C.3     1  UNL1        0.0603
     19 C          62.0551   85.9002   11.1116 C.2     1  UNL1        0.1673
     20 C          62.5097   84.9015   10.0890 C.2     1  UNL1        0.2683
     21 N          63.3719   83.7454   10.5013 N.2     1  UNL1       -0.0278
     22 C          63.7796   83.5880   11.9361 C.2     1  UNL1        0.3719
     23 N          64.6174   82.5582   12.6344 N.2     1  UNL1       -0.0311
     24 C          64.6807   82.9205   14.0886 C.2     1  UNL1        0.2319
     25 C          63.8820   84.1743   14.2892 C.2     1  UNL1        0.0329
     26 C          63.3251   84.5868   12.9588 C.2     1  UNL1        0.0739
     27 C          62.4629   85.7429   12.5465 C.3     1  UNL1        0.1019
     28 C          61.6865   88.0311    9.6717 C.3     1  UNL1        0.2522
     29 O          61.1929   87.0563   10.6994 O.2     1  UNL1       -0.4715
@<TRIPOS>BOND
     1    28    29    1
     2    29    19    1
     3    19    20    2
     4    20    21    1
     5    21    22    2
     6    22    23    1
     7    23    24    2
     8    24    25    1
     9    25    18    1
    10    18     1    1
    11     1     2   ar
    12     2     3   ar
    13     3     4   ar
    14     4     8    1
    15     8    10    1
    16    10    11    1
    17    11    12   ar
    18    12    13   ar
    19    13    14   ar
    20    14    15    1
    21    14    16   ar
    22    16    17   ar
    23     4     5   ar
    24     5     6   ar
    25     6     7    1
    26    25    26    2
    27    26    27    1
    28    27    19    1
    29    26    22    1
    30     6     1   ar
    31    17    11   ar
    32     8     9    1
