@<TRIPOS>MOLECULE
*****
 41 44 0 0 0
SMALL
GASTEIGER

@<TRIPOS>ATOM
      1 N          60.0916   89.1184    7.7806 N.am    1  UNL1       -0.3009
      2 C          59.9626   87.8425    8.5586 C.2     1  UNL1        0.2459
      3 O          58.8306   86.9007    8.2725 O.2     1  UNL1       -0.2701
      4 H          60.8345   89.7364    7.9683 H       1  UNL1        0.1497
      5 C          60.9655   87.5082    9.6227 C.ar    1  UNL1        0.0563
      6 C          61.3422   86.0786    9.8758 C.ar    1  UNL1        0.0237
      7 C          62.3452   85.7443   10.9399 C.ar    1  UNL1        0.0814
      8 N          62.9715   86.8397   11.7509 N.ar    1  UNL1       -0.2454
      9 C          62.5948   88.2695   11.4979 C.ar    1  UNL1        0.0814
     10 C          63.2211   89.3649   12.3089 C.ar    1  UNL1        0.0191
     11 C          62.8444   90.7946   12.0558 C.ar    1  UNL1        0.0015
     12 C          61.8414   91.1288   10.9916 C.ar    1  UNL1        0.0001
     13 C          61.2151   90.0334   10.1806 C.ar    1  UNL1        0.0016
     14 C          61.5918   88.6037   10.4337 C.ar    1  UNL1        0.0221
     15 C          62.7219   84.3145   11.1930 C.ar    1  UNL1        0.0174
     16 C          63.4188   83.5225   10.1267 C.ar    1  UNL1        0.0015
     17 C          63.7954   82.0929   10.3798 C.ar    1  UNL1       -0.0002
     18 C          63.4751   81.4552   11.6992 C.ar    1  UNL1       -0.0029
     19 C          62.7783   82.2472   12.7655 C.ar    1  UNL1       -0.0066
     20 C          62.4016   83.6769   12.5124 C.ar    1  UNL1       -0.0014
     21 C          62.4580   81.6095   14.0849 C.3     1  UNL1        0.0922
     22 N          62.4674   82.4337   15.3382 N.3     1  UNL1       -0.3175
     23 H          63.4175   82.7520   15.5286 H       1  UNL1        0.1192
     24 H          62.1352   81.8682   16.1194 H       1  UNL1        0.1192
     25 C          59.0886   89.4526    6.7165 C.3     1  UNL1        0.0896
     26 C          60.0831   92.5101    3.5681 C.3     1  UNL1        0.0197
     27 C          61.1665   91.6480    4.1449 C.3     1  UNL1        0.0018
     28 C          60.8350   90.6288    5.1944 C.3     1  UNL1        0.0017
     29 C          59.4201   90.4718    5.6670 C.3     1  UNL1        0.0196
     30 C          58.3367   91.3340    5.0901 C.3     1  UNL1        0.0017
     31 C          58.6682   92.3532    4.0407 C.3     1  UNL1        0.0018
     32 C          60.4146   93.5294    2.5186 C.3     1  UNL1        0.0926
     33 C          59.1102   93.1708    0.3005 C.2     1  UNL1        0.4014
     34 O          59.9075   91.9289    0.0324 O.2     1  UNL1       -0.2264
     35 N          59.3637   93.9710    1.5436 N.am    1  UNL1       -0.2707
     36 H          58.8403   94.7861    1.7196 H       1  UNL1        0.1527
     37 O          58.0592   93.6124   -0.6745 O.3     1  UNL1       -0.4419
     38 C          59.1456   93.8068   -2.4861 C.3     1  UNL1        0.0437
     39 C          57.9810   92.9780   -2.0314 C.3     1  UNL1        0.1378
     40 C          56.8164   92.1492   -1.5768 C.3     1  UNL1        0.0437
     41 C          57.9028   92.3435   -3.3884 C.3     1  UNL1        0.0437
@<TRIPOS>BOND
     1    38    39    1
     2    39    40    1
     3    39    41    1
     4    39    37    1
     5    37    33    1
     6    33    34    2
     7    33    35   am
     8    35    32    1
     9    26    32    1
    10    26    27    1
    11    27    28    1
    12    28    29    1
    13    29    25    1
    14    25     1    1
    15     1     2   am
    16     2     3    2
    17     2     5    1
    18     5     6   ar
    19     6     7   ar
    20     7    15    1
    21    15    16   ar
    22    16    17   ar
    23    17    18   ar
    24    18    19   ar
    25    19    21    1
    26    21    22    1
    27    19    20   ar
    28     7     8   ar
    29     8     9   ar
    30     9    10   ar
    31    10    11   ar
    32    11    12   ar
    33    12    13   ar
    34    13    14   ar
    35    29    30    1
    36    30    31    1
    37    31    26    1
    38    14     5   ar
    39    20    15   ar
    40    14     9   ar
    41    35    36    1
    42     1     4    1
    43    22    23    1
    44    22    24    1
@<TRIPOS>MOLECULE
*****
 41 44 0 0 0
SMALL
GASTEIGER

@<TRIPOS>ATOM
      1 N          62.1191   89.8819   11.0664 N.am    1  UNL1       -0.3009
      2 C          63.1443   89.7116   12.1480 C.2     1  UNL1        0.2459
      3 O          63.2528   88.4068   12.8799 O.2     1  UNL1       -0.2701
      4 H          62.0479   90.7383   10.5861 H       1  UNL1        0.1497
      5 C          64.0610   90.8462   12.4978 C.ar    1  UNL1        0.0563
      6 C          64.7510   91.6154   11.4106 C.ar    1  UNL1        0.0237
      7 C          65.6678   92.7500   11.7603 C.ar    1  UNL1        0.0814
      8 N          65.8945   93.1153   13.1973 N.ar    1  UNL1       -0.2454
      9 C          65.2045   92.3460   14.2847 C.ar    1  UNL1        0.0814
     10 C          65.4313   92.7114   15.7217 C.ar    1  UNL1        0.0191
     11 C          64.7413   91.9421   16.8090 C.ar    1  UNL1        0.0015
     12 C          63.8246   90.8076   16.4592 C.ar    1  UNL1        0.0001
     13 C          63.5978   90.4422   15.0222 C.ar    1  UNL1        0.0016
     14 C          64.2878   91.2115   13.9349 C.ar    1  UNL1        0.0221
     15 C          66.3577   93.5193   10.6730 C.ar    1  UNL1        0.0174
     16 C          67.6410   93.0063   10.0897 C.ar    1  UNL1        0.0015
     17 C          68.3309   93.7756    9.0025 C.ar    1  UNL1       -0.0002
     18 C          67.7376   95.0578    8.4984 C.ar    1  UNL1       -0.0029
     19 C          66.4544   95.5707    9.0817 C.ar    1  UNL1       -0.0066
     20 C          65.7644   94.8014   10.1690 C.ar    1  UNL1       -0.0014
     21 C          65.8611   96.8528    8.5777 C.3     1  UNL1        0.0922
     22 N          65.0244   96.8537    7.3327 N.3     1  UNL1       -0.3175
     23 H          65.6064   96.6085    6.5318 H       1  UNL1        0.1192
     24 H          64.6256   97.7819    7.1917 H       1  UNL1        0.1192
     25 C          61.2023   88.7474   10.7167 C.3     1  UNL1        0.0896
     26 C          62.8725   84.6158   10.0917 C.3     1  UNL1        0.0197
     27 C          63.0230   85.6554    9.0210 C.3     1  UNL1        0.0018
     28 C          62.4663   87.0326    9.2293 C.3     1  UNL1        0.0017
     29 C          61.7591   87.3701   10.5084 C.3     1  UNL1        0.0196
     30 C          61.6086   86.3305   11.5791 C.3     1  UNL1        0.0017
     31 C          62.1653   84.9533   11.3708 C.3     1  UNL1        0.0018
     32 C          63.4293   83.2386    9.8834 C.3     1  UNL1        0.0926
     33 C          63.8868   82.1793   12.2112 C.2     1  UNL1        0.4014
     34 O          64.8687   83.2717   12.5153 O.2     1  UNL1       -0.2264
     35 N          63.1671   82.1627   10.8953 N.am    1  UNL1       -0.2707
     36 H          62.5227   81.4457   10.6957 H       1  UNL1        0.1527
     37 O          63.6247   81.1034   13.2230 O.3     1  UNL1       -0.4419
     38 C          62.2539   79.4886   13.1082 C.3     1  UNL1        0.0437
     39 C          62.2285   80.8603   13.7146 C.3     1  UNL1        0.1378
     40 C          62.2032   82.2320   14.3210 C.3     1  UNL1        0.0437
     41 C          60.8324   80.6172   14.2063 C.3     1  UNL1        0.0437
@<TRIPOS>BOND
     1    38    39    1
     2    39    40    1
     3    39    41    1
     4    39    37    1
     5    37    33    1
     6    33    34    2
     7    33    35   am
     8    35    32    1
     9    26    32    1
    10    26    27    1
    11    27    28    1
    12    28    29    1
    13    29    25    1
    14    25     1    1
    15     1     2   am
    16     2     3    2
    17     2     5    1
    18     5     6   ar
    19     6     7   ar
    20     7    15    1
    21    15    16   ar
    22    16    17   ar
    23    17    18   ar
    24    18    19   ar
    25    19    21    1
    26    21    22    1
    27    19    20   ar
    28     7     8   ar
    29     8     9   ar
    30     9    10   ar
    31    10    11   ar
    32    11    12   ar
    33    12    13   ar
    34    13    14   ar
    35    29    30    1
    36    30    31    1
    37    31    26    1
    38    14     5   ar
    39    20    15   ar
    40    14     9   ar
    41    35    36    1
    42     1     4    1
    43    22    23    1
    44    22    24    1
@<TRIPOS>MOLECULE
*****
 41 44 0 0 0
SMALL
GASTEIGER

@<TRIPOS>ATOM
      1 N          59.8498   88.6610    8.3958 N.am    1  UNL1       -0.3009
      2 C          60.5083   87.3663    8.7699 C.2     1  UNL1        0.2459
      3 O          60.3111   86.1499    7.9145 O.2     1  UNL1       -0.2701
      4 H          59.9792   89.4593    8.9572 H       1  UNL1        0.1497
      5 C          61.3639   87.2878    9.9994 C.ar    1  UNL1        0.0563
      6 C          61.5572   85.9735   10.6960 C.ar    1  UNL1        0.0237
      7 C          62.4129   85.8950   11.9255 C.ar    1  UNL1        0.0814
      8 N          63.0753   87.1308   12.4584 N.ar    1  UNL1       -0.2454
      9 C          62.8820   88.4452   11.7618 C.ar    1  UNL1        0.0814
     10 C          63.5443   89.6809   12.2948 C.ar    1  UNL1        0.0191
     11 C          63.3510   90.9952   11.5982 C.ar    1  UNL1        0.0015
     12 C          62.4954   91.0737   10.3687 C.ar    1  UNL1        0.0001
     13 C          61.8330   89.8379    9.8358 C.ar    1  UNL1        0.0016
     14 C          62.0263   88.5236   10.5323 C.ar    1  UNL1        0.0221
     15 C          62.6062   84.5806   12.6221 C.ar    1  UNL1        0.0174
     16 C          62.8131   84.5422   14.1072 C.ar    1  UNL1        0.0015
     17 C          63.0064   83.2279   14.8037 C.ar    1  UNL1       -0.0002
     18 C          62.9927   81.9520   14.0151 C.ar    1  UNL1       -0.0029
     19 C          62.7858   81.9904   12.5299 C.ar    1  UNL1       -0.0066
     20 C          62.5925   83.3047   11.8334 C.ar    1  UNL1       -0.0014
     21 C          62.7721   80.7145   11.7413 C.3     1  UNL1        0.0922
     22 N          63.2181   80.7132   10.3092 N.3     1  UNL1       -0.3175
     23 H          62.5684   81.2663    9.7502 H       1  UNL1        0.1192
     24 H          63.2368   79.7551    9.9598 H       1  UNL1        0.1192
     25 C          58.9942   88.7395    7.1663 C.3     1  UNL1        0.0896
     26 C          59.6172   92.0658    4.2002 C.3     1  UNL1        0.0197
     27 C          60.7882   91.2620    4.6826 C.3     1  UNL1        0.0018
     28 C          60.5805   90.1532    5.6712 C.3     1  UNL1        0.0017
     29 C          59.2018   89.8483    6.1776 C.3     1  UNL1        0.0196
     30 C          58.0309   90.6521    5.6952 C.3     1  UNL1        0.0017
     31 C          58.2386   91.7608    4.7065 C.3     1  UNL1        0.0018
     32 C          59.8249   93.1746    3.2115 C.3     1  UNL1        0.0926
     33 C          60.8253   92.4778    0.9173 C.2     1  UNL1        0.4014
     34 O          62.1708   92.3035    1.5570 O.2     1  UNL1       -0.2264
     35 N          59.6524   92.9134    1.7445 N.am    1  UNL1       -0.2707
     36 H          58.7693   93.0278    1.3246 H       1  UNL1        0.1527
     37 O          60.6529   92.2166   -0.5497 O.3     1  UNL1       -0.4419
     38 C          61.6184   93.9462   -1.3087 C.3     1  UNL1        0.0437
     39 C          60.2584   93.3342   -1.4692 C.3     1  UNL1        0.1378
     40 C          58.8985   92.7221   -1.6297 C.3     1  UNL1        0.0437
     41 C          59.8640   94.4517   -2.3888 C.3     1  UNL1        0.0437
@<TRIPOS>BOND
     1    38    39    1
     2    39    40    1
     3    39    41    1
     4    39    37    1
     5    37    33    1
     6    33    34    2
     7    33    35   am
     8    35    32    1
     9    26    32    1
    10    26    27    1
    11    27    28    1
    12    28    29    1
    13    29    25    1
    14    25     1    1
    15     1     2   am
    16     2     3    2
    17     2     5    1
    18     5     6   ar
    19     6     7   ar
    20     7    15    1
    21    15    16   ar
    22    16    17   ar
    23    17    18   ar
    24    18    19   ar
    25    19    21    1
    26    21    22    1
    27    19    20   ar
    28     7     8   ar
    29     8     9   ar
    30     9    10   ar
    31    10    11   ar
    32    11    12   ar
    33    12    13   ar
    34    13    14   ar
    35    29    30    1
    36    30    31    1
    37    31    26    1
    38    14     5   ar
    39    20    15   ar
    40    14     9   ar
    41    35    36    1
    42     1     4    1
    43    22    23    1
    44    22    24    1
@<TRIPOS>MOLECULE
*****
 41 44 0 0 0
SMALL
GASTEIGER

@<TRIPOS>ATOM
      1 N          60.0288   89.0819    7.8348 N.am    1  UNL1       -0.3009
      2 C          59.9718   87.7688    8.5575 C.2     1  UNL1        0.2459
      3 O          58.9115   86.7664    8.2092 O.2     1  UNL1       -0.2701
      4 H          60.7247   89.7398    8.0635 H       1  UNL1        0.1497
      5 C          60.9749   87.4579    9.6286 C.ar    1  UNL1        0.0563
      6 C          61.3603   86.0349    9.9049 C.ar    1  UNL1        0.0237
      7 C          62.3634   85.7241   10.9759 C.ar    1  UNL1        0.0814
      8 N          62.9811   86.8362   11.7707 N.ar    1  UNL1       -0.2454
      9 C          62.5956   88.2593   11.4943 C.ar    1  UNL1        0.0814
     10 C          63.2133   89.3714   12.2890 C.ar    1  UNL1        0.0191
     11 C          62.8278   90.7945   12.0127 C.ar    1  UNL1        0.0015
     12 C          61.8247   91.1053   10.9416 C.ar    1  UNL1        0.0001
     13 C          61.2071   89.9932   10.1469 C.ar    1  UNL1        0.0016
     14 C          61.5925   88.5702   10.4233 C.ar    1  UNL1        0.0221
     15 C          62.7489   84.3009   11.2523 C.ar    1  UNL1        0.0174
     16 C          63.4376   83.4914   10.1939 C.ar    1  UNL1        0.0015
     17 C          63.8230   82.0684   10.4702 C.ar    1  UNL1       -0.0002
     18 C          63.5197   81.4549   11.8050 C.ar    1  UNL1       -0.0029
     19 C          62.8309   82.2644   12.8634 C.ar    1  UNL1       -0.0066
     20 C          62.4455   83.6874   12.5870 C.ar    1  UNL1       -0.0014
     21 C          62.5276   81.6509   14.1982 C.3     1  UNL1        0.0922
     22 N          62.6215   82.4811   15.4439 N.3     1  UNL1       -0.3175
     23 H          63.5921   82.7541   15.5982 H       1  UNL1        0.1192
     24 H          62.2906   81.9371   16.2407 H       1  UNL1        0.1192
     25 C          59.0257   89.3928    6.7638 C.3     1  UNL1        0.0896
     26 C          59.9595   92.4924    3.6380 C.3     1  UNL1        0.0197
     27 C          61.0585   91.6420    4.2027 C.3     1  UNL1        0.0018
     28 C          60.7472   90.6088    5.2446 C.3     1  UNL1        0.0017
     29 C          59.3370   90.4261    5.7218 C.3     1  UNL1        0.0196
     30 C          58.2380   91.2765    5.1571 C.3     1  UNL1        0.0017
     31 C          58.5492   92.3097    4.1152 C.3     1  UNL1        0.0018
     32 C          60.2707   93.5257    2.5960 C.3     1  UNL1        0.0926
     33 C          61.8221   93.1185    0.5521 C.2     1  UNL1        0.4014
     34 O          60.6494   92.6184   -0.2383 O.2     1  UNL1       -0.2264
     35 N          61.6327   93.5721    1.9693 N.am    1  UNL1       -0.2707
     36 H          62.4024   93.9004    2.4880 H       1  UNL1        0.1527
     37 O          63.1840   93.1650   -0.0747 O.3     1  UNL1       -0.4419
     38 C          63.1693   95.1819   -0.7318 C.3     1  UNL1        0.0437
     39 C          64.0685   94.3572    0.1407 C.3     1  UNL1        0.1378
     40 C          64.9676   93.5325    1.0132 C.3     1  UNL1        0.0437
     41 C          64.9530   95.5494    0.3561 C.3     1  UNL1        0.0437
@<TRIPOS>BOND
     1    38    39    1
     2    39    40    1
     3    39    41    1
     4    39    37    1
     5    37    33    1
     6    33    34    2
     7    33    35   am
     8    35    32    1
     9    26    32    1
    10    26    27    1
    11    27    28    1
    12    28    29    1
    13    29    25    1
    14    25     1    1
    15     1     2   am
    16     2     3    2
    17     2     5    1
    18     5     6   ar
    19     6     7   ar
    20     7    15    1
    21    15    16   ar
    22    16    17   ar
    23    17    18   ar
    24    18    19   ar
    25    19    21    1
    26    21    22    1
    27    19    20   ar
    28     7     8   ar
    29     8     9   ar
    30     9    10   ar
    31    10    11   ar
    32    11    12   ar
    33    12    13   ar
    34    13    14   ar
    35    29    30    1
    36    30    31    1
    37    31    26    1
    38    14     5   ar
    39    20    15   ar
    40    14     9   ar
    41    35    36    1
    42     1     4    1
    43    22    23    1
    44    22    24    1
@<TRIPOS>MOLECULE
*****
 41 44 0 0 0
SMALL
GASTEIGER

@<TRIPOS>ATOM
      1 N          59.8187   88.6204    8.4077 N.am    1  UNL1       -0.3009
      2 C          60.5402   87.3486    8.7422 C.2     1  UNL1        0.2459
      3 O          60.4228   86.1590    7.8359 O.2     1  UNL1       -0.2701
      4 H          59.8957   89.4011    9.0025 H       1  UNL1        0.1497
      5 C          61.3791   87.2663    9.9829 C.ar    1  UNL1        0.0563
      6 C          61.5595   85.9507   10.6804 C.ar    1  UNL1        0.0237
      7 C          62.3984   85.8684   11.9212 C.ar    1  UNL1        0.0814
      8 N          63.0569   87.1017   12.4644 N.ar    1  UNL1       -0.2454
      9 C          62.8766   88.4174   11.7670 C.ar    1  UNL1        0.0814
     10 C          63.5351   89.6508   12.3102 C.ar    1  UNL1        0.0191
     11 C          63.3547   90.9664   11.6128 C.ar    1  UNL1        0.0015
     12 C          62.5158   91.0487   10.3720 C.ar    1  UNL1        0.0001
     13 C          61.8573   89.8154    9.8287 C.ar    1  UNL1        0.0016
     14 C          62.0377   88.4997   10.5262 C.ar    1  UNL1        0.0221
     15 C          62.5788   84.5526   12.6186 C.ar    1  UNL1        0.0174
     16 C          62.7570   84.5112   14.1074 C.ar    1  UNL1        0.0015
     17 C          62.9373   83.1955   14.8048 C.ar    1  UNL1       -0.0002
     18 C          62.9395   81.9213   14.0134 C.ar    1  UNL1       -0.0029
     19 C          62.7613   81.9627   12.5247 C.ar    1  UNL1       -0.0066
     20 C          62.5810   83.2784   11.8273 C.ar    1  UNL1       -0.0014
     21 C          62.7635   80.6885   11.7333 C.3     1  UNL1        0.0922
     22 N          63.2103   80.6956   10.3014 N.3     1  UNL1       -0.3175
     23 H          62.5544   81.2420    9.7433 H       1  UNL1        0.1192
     24 H          63.2408   79.7385    9.9500 H       1  UNL1        0.1192
     25 C          58.9798   88.7027    7.1669 C.3     1  UNL1        0.0896
     26 C          59.6257   92.0524    4.2323 C.3     1  UNL1        0.0197
     27 C          58.2424   91.7395    4.7207 C.3     1  UNL1        0.0018
     28 C          58.0271   90.6230    5.6989 C.3     1  UNL1        0.0017
     29 C          59.1951   89.8193    6.1887 C.3     1  UNL1        0.0196
     30 C          60.5784   90.1322    5.7003 C.3     1  UNL1        0.0017
     31 C          60.7937   91.2488    4.7221 C.3     1  UNL1        0.0018
     32 C          59.8410   93.1690    3.2541 C.3     1  UNL1        0.0926
     33 C          61.1760   92.9240    1.0387 C.2     1  UNL1        0.4014
     34 O          59.9263   92.4860    0.3342 O.2     1  UNL1       -0.2264
     35 N          61.1333   93.2655    2.4987 N.am    1  UNL1       -0.2707
     36 H          61.9536   93.5530    2.9611 H       1  UNL1        0.1527
     37 O          62.4683   93.0205    0.2833 O.3     1  UNL1       -0.4419
     38 C          62.5470   95.1007   -0.1245 C.3     1  UNL1        0.0437
     39 C          63.4353   94.1255    0.5895 C.3     1  UNL1        0.1378
     40 C          64.3236   93.1502    1.3034 C.3     1  UNL1        0.0437
     41 C          64.4024   95.2305    0.8957 C.3     1  UNL1        0.0437
@<TRIPOS>BOND
     1    38    39    1
     2    39    40    1
     3    39    41    1
     4    39    37    1
     5    37    33    1
     6    33    34    2
     7    33    35   am
     8    35    32    1
     9    26    32    1
    10    26    27    1
    11    27    28    1
    12    28    29    1
    13    29    25    1
    14    25     1    1
    15     1     2   am
    16     2     3    2
    17     2     5    1
    18     5     6   ar
    19     6     7   ar
    20     7    15    1
    21    15    16   ar
    22    16    17   ar
    23    17    18   ar
    24    18    19   ar
    25    19    21    1
    26    21    22    1
    27    19    20   ar
    28     7     8   ar
    29     8     9   ar
    30     9    10   ar
    31    10    11   ar
    32    11    12   ar
    33    12    13   ar
    34    13    14   ar
    35    29    30    1
    36    30    31    1
    37    31    26    1
    38    14     5   ar
    39    20    15   ar
    40    14     9   ar
    41    35    36    1
    42     1     4    1
    43    22    23    1
    44    22    24    1
@<TRIPOS>MOLECULE
*****
 41 44 0 0 0
SMALL
GASTEIGER

@<TRIPOS>ATOM
      1 N          60.4078   88.8296    8.2397 N.am    1  UNL1       -0.3009
      2 C          60.4809   89.6099    9.5187 C.2     1  UNL1        0.2459
      3 O          59.4203   90.6199    9.8428 O.2     1  UNL1       -0.2701
      4 H          61.1040   88.1668    8.0270 H       1  UNL1        0.1497
      5 C          61.6147   89.3803   10.4736 C.ar    1  UNL1        0.0563
      6 C          62.4885   90.5262   10.8898 C.ar    1  UNL1        0.0237
      7 C          63.6223   90.2965   11.8447 C.ar    1  UNL1        0.0814
      8 N          63.8822   88.9210   12.3834 N.ar    1  UNL1       -0.2454
      9 C          63.0084   87.7750   11.9672 C.ar    1  UNL1        0.0814
     10 C          63.2683   86.3994   12.5059 C.ar    1  UNL1        0.0191
     11 C          62.3945   85.2535   12.0897 C.ar    1  UNL1        0.0015
     12 C          61.2607   85.4832   11.1348 C.ar    1  UNL1        0.0001
     13 C          61.0008   86.8587   10.5961 C.ar    1  UNL1        0.0016
     14 C          61.8746   88.0046   11.0123 C.ar    1  UNL1        0.0221
     15 C          64.4961   91.4425   12.2609 C.ar    1  UNL1        0.0174
     16 C          64.8975   92.4827   11.2574 C.ar    1  UNL1        0.0015
     17 C          65.7713   93.6286   11.6736 C.ar    1  UNL1       -0.0002
     18 C          66.2437   93.7344   13.0933 C.ar    1  UNL1       -0.0029
     19 C          65.8424   92.6943   14.0968 C.ar    1  UNL1       -0.0066
     20 C          64.9686   91.5483   13.6806 C.ar    1  UNL1       -0.0014
     21 C          66.3149   92.8001   15.5165 C.3     1  UNL1        0.0922
     22 N          65.3208   92.7986   16.6399 N.3     1  UNL1       -0.3175
     23 H          64.7475   93.6406   16.5876 H       1  UNL1        0.1192
     24 H          65.8156   92.7790   17.5316 H       1  UNL1        0.1192
     25 C          59.2741   89.0593    7.2848 C.3     1  UNL1        0.0896
     26 C          59.6638   92.1409    4.0288 C.3     1  UNL1        0.0197
     27 C          58.3191   91.8438    4.6231 C.3     1  UNL1        0.0018
     28 C          58.1892   90.8166    5.7084 C.3     1  UNL1        0.0017
     29 C          59.4040   90.0865    6.1994 C.3     1  UNL1        0.0196
     30 C          60.7488   90.3836    5.6051 C.3     1  UNL1        0.0017
     31 C          60.8787   91.4108    4.5198 C.3     1  UNL1        0.0018
     32 C          59.7938   93.1682    2.9434 C.3     1  UNL1        0.0926
     33 C          60.2790   92.3846    0.5143 C.2     1  UNL1        0.4014
     34 O          61.7296   92.2181    0.8578 O.2     1  UNL1       -0.2264
     35 N          59.3111   92.8596    1.5571 N.am    1  UNL1       -0.2707
     36 H          58.3590   92.9689    1.3317 H       1  UNL1        0.1527
     37 O          59.7964   92.0761   -0.8720 O.3     1  UNL1       -0.4419
     38 C          57.8918   92.6257   -1.6273 C.3     1  UNL1        0.0437
     39 C          59.2810   93.1782   -1.7493 C.3     1  UNL1        0.1378
     40 C          60.6701   93.7306   -1.8714 C.3     1  UNL1        0.0437
     41 C          58.7656   94.2803   -2.6267 C.3     1  UNL1        0.0437
@<TRIPOS>BOND
     1    38    39    1
     2    39    40    1
     3    39    41    1
     4    39    37    1
     5    37    33    1
     6    33    34    2
     7    33    35   am
     8    35    32    1
     9    26    32    1
    10    26    27    1
    11    27    28    1
    12    28    29    1
    13    29    25    1
    14    25     1    1
    15     1     2   am
    16     2     3    2
    17     2     5    1
    18     5     6   ar
    19     6     7   ar
    20     7    15    1
    21    15    16   ar
    22    16    17   ar
    23    17    18   ar
    24    18    19   ar
    25    19    21    1
    26    21    22    1
    27    19    20   ar
    28     7     8   ar
    29     8     9   ar
    30     9    10   ar
    31    10    11   ar
    32    11    12   ar
    33    12    13   ar
    34    13    14   ar
    35    29    30    1
    36    30    31    1
    37    31    26    1
    38    14     5   ar
    39    20    15   ar
    40    14     9   ar
    41    35    36    1
    42     1     4    1
    43    22    23    1
    44    22    24    1
@<TRIPOS>MOLECULE
*****
 41 44 0 0 0
SMALL
GASTEIGER

@<TRIPOS>ATOM
      1 N          60.3210   89.0369    8.2243 N.am    1  UNL1       -0.3009
      2 C          60.4002   89.7382    9.5478 C.2     1  UNL1        0.2459
      3 O          59.3355   90.7188    9.9419 O.2     1  UNL1       -0.2701
      4 H          61.0198   88.3934    7.9656 H       1  UNL1        0.1497
      5 C          61.5438   89.4591   10.4774 C.ar    1  UNL1        0.0563
      6 C          62.4300   90.5799   10.9340 C.ar    1  UNL1        0.0237
      7 C          63.5737   90.3007   11.8635 C.ar    1  UNL1        0.0814
      8 N          63.8312   88.9007   12.3365 N.ar    1  UNL1       -0.2454
      9 C          62.9450   87.7798   11.8799 C.ar    1  UNL1        0.0814
     10 C          63.2026   86.3799   12.3528 C.ar    1  UNL1        0.0191
     11 C          62.3164   85.2591   11.8962 C.ar    1  UNL1        0.0015
     12 C          61.1728   85.5383   10.9667 C.ar    1  UNL1        0.0001
     13 C          60.9152   86.9382   10.4937 C.ar    1  UNL1        0.0016
     14 C          61.8014   88.0590   10.9503 C.ar    1  UNL1        0.0221
     15 C          64.4598   91.4216   12.3201 C.ar    1  UNL1        0.0174
     16 C          64.8793   92.4879   11.3522 C.ar    1  UNL1        0.0015
     17 C          65.7654   93.6087   11.8088 C.ar    1  UNL1       -0.0002
     18 C          66.2321   93.6632   13.2333 C.ar    1  UNL1       -0.0029
     19 C          65.8127   92.5968   14.2012 C.ar    1  UNL1       -0.0066
     20 C          64.9265   91.4760   13.7446 C.ar    1  UNL1       -0.0014
     21 C          66.2793   92.6513   15.6257 C.3     1  UNL1        0.0922
     22 N          65.2907   92.8783   16.7307 N.3     1  UNL1       -0.3175
     23 H          64.8942   93.8142   16.6451 H       1  UNL1        0.1192
     24 H          65.7611   92.7894   17.6314 H       1  UNL1        0.1192
     25 C          59.1774   89.3161    7.2947 C.3     1  UNL1        0.0896
     26 C          59.7273   92.1420    3.8362 C.3     1  UNL1        0.0197
     27 C          60.9122   91.4302    4.4188 C.3     1  UNL1        0.0018
     28 C          60.7288   90.4882    5.5716 C.3     1  UNL1        0.0017
     29 C          59.3607   90.2581    6.1418 C.3     1  UNL1        0.0196
     30 C          58.1758   90.9700    5.5593 C.3     1  UNL1        0.0017
     31 C          58.3592   91.9119    4.4065 C.3     1  UNL1        0.0018
     32 C          59.9106   93.0840    2.6833 C.3     1  UNL1        0.0926
     33 C          61.4299   94.6758    1.3020 C.2     1  UNL1        0.4014
     34 O          60.2413   95.1126    0.4981 O.2     1  UNL1       -0.2264
     35 N          61.2646   93.6615    2.3946 N.am    1  UNL1       -0.2707
     36 H          62.0447   93.3747    2.9222 H       1  UNL1        0.1527
     37 O          62.7839   95.2532    1.0133 O.3     1  UNL1       -0.4419
     38 C          64.5783   94.9247    2.0959 C.3     1  UNL1        0.0437
     39 C          63.9677   94.3460    0.8540 C.3     1  UNL1        0.1378
     40 C          63.3572   93.7673   -0.3879 C.3     1  UNL1        0.0437
     41 C          65.1516   93.4387    0.6947 C.3     1  UNL1        0.0437
@<TRIPOS>BOND
     1    38    39    1
     2    39    40    1
     3    39    41    1
     4    39    37    1
     5    37    33    1
     6    33    34    2
     7    33    35   am
     8    35    32    1
     9    26    32    1
    10    26    27    1
    11    27    28    1
    12    28    29    1
    13    29    25    1
    14    25     1    1
    15     1     2   am
    16     2     3    2
    17     2     5    1
    18     5     6   ar
    19     6     7   ar
    20     7    15    1
    21    15    16   ar
    22    16    17   ar
    23    17    18   ar
    24    18    19   ar
    25    19    21    1
    26    21    22    1
    27    19    20   ar
    28     7     8   ar
    29     8     9   ar
    30     9    10   ar
    31    10    11   ar
    32    11    12   ar
    33    12    13   ar
    34    13    14   ar
    35    29    30    1
    36    30    31    1
    37    31    26    1
    38    14     5   ar
    39    20    15   ar
    40    14     9   ar
    41    35    36    1
    42     1     4    1
    43    22    23    1
    44    22    24    1
@<TRIPOS>MOLECULE
*****
 41 44 0 0 0
SMALL
GASTEIGER

@<TRIPOS>ATOM
      1 N          60.3350   89.0677    8.3061 N.am    1  UNL1       -0.3009
      2 C          60.4196   89.7401    9.6442 C.2     1  UNL1        0.2459
      3 O          59.3656   90.7244   10.0570 O.2     1  UNL1       -0.2701
      4 H          61.0267   88.4216    8.0352 H       1  UNL1        0.1497
      5 C          61.5582   89.4282   10.5697 C.ar    1  UNL1        0.0563
      6 C          62.4412   90.5322   11.0710 C.ar    1  UNL1        0.0237
      7 C          63.5797   90.2203   11.9964 C.ar    1  UNL1        0.0814
      8 N          63.8352   88.8044   12.4206 N.ar    1  UNL1       -0.2454
      9 C          62.9522   87.7003   11.9193 C.ar    1  UNL1        0.0814
     10 C          63.2077   86.2844   12.3434 C.ar    1  UNL1        0.0191
     11 C          62.3246   85.1804   11.8421 C.ar    1  UNL1        0.0015
     12 C          61.1861   85.4923   10.9166 C.ar    1  UNL1        0.0001
     13 C          60.9306   86.9082   10.4925 C.ar    1  UNL1        0.0016
     14 C          61.8136   88.0122   10.9938 C.ar    1  UNL1        0.0221
     15 C          64.4628   91.3244   12.4977 C.ar    1  UNL1        0.0174
     16 C          64.9664   91.2992   13.9104 C.ar    1  UNL1        0.0015
     17 C          65.8494   92.4033   14.4116 C.ar    1  UNL1       -0.0002
     18 C          66.2289   93.5325   13.5002 C.ar    1  UNL1       -0.0029
     19 C          65.7253   93.5578   12.0875 C.ar    1  UNL1       -0.0066
     20 C          64.8423   92.4537   11.5863 C.ar    1  UNL1       -0.0014
     21 C          66.1047   94.6870   11.1760 C.3     1  UNL1        0.0922
     22 N          65.7785   96.1006   11.5573 N.3     1  UNL1       -0.3175
     23 H          64.7662   96.2243   11.5700 H       1  UNL1        0.1192
     24 H          66.1907   96.7398   10.8777 H       1  UNL1        0.1192
     25 C          59.1965   89.3795    7.3806 C.3     1  UNL1        0.0896
     26 C          59.8345   92.1283    3.8754 C.3     1  UNL1        0.0197
     27 C          60.9969   91.3913    4.4718 C.3     1  UNL1        0.0018
     28 C          60.7842   90.4751    5.6402 C.3     1  UNL1        0.0017
     29 C          59.4091   90.2958    6.2122 C.3     1  UNL1        0.0196
     30 C          58.2468   91.0329    5.6158 C.3     1  UNL1        0.0017
     31 C          58.4595   91.9491    4.4474 C.3     1  UNL1        0.0018
     32 C          60.0472   93.0446    2.7069 C.3     1  UNL1        0.0926
     33 C          59.7581   93.4162    0.1518 C.2     1  UNL1        0.4014
     34 O          61.0493   94.1788    0.1167 O.2     1  UNL1       -0.2264
     35 N          59.2571   92.8491    1.4469 N.am    1  UNL1       -0.2707
     36 H          58.4097   92.3485    1.4700 H       1  UNL1        0.1527
     37 O          58.9680   93.2206   -1.1081 O.3     1  UNL1       -0.4419
     38 C          58.1082   95.1598   -1.0943 C.3     1  UNL1        0.0437
     39 C          57.5734   93.7632   -1.2107 C.3     1  UNL1        0.1378
     40 C          57.0386   92.3667   -1.3270 C.3     1  UNL1        0.0437
     41 C          56.1787   94.3058   -1.3133 C.3     1  UNL1        0.0437
@<TRIPOS>BOND
     1    38    39    1
     2    39    40    1
     3    39    41    1
     4    39    37    1
     5    37    33    1
     6    33    34    2
     7    33    35   am
     8    35    32    1
     9    26    32    1
    10    26    27    1
    11    27    28    1
    12    28    29    1
    13    29    25    1
    14    25     1    1
    15     1     2   am
    16     2     3    2
    17     2     5    1
    18     5     6   ar
    19     6     7   ar
    20     7    15    1
    21    15    16   ar
    22    16    17   ar
    23    17    18   ar
    24    18    19   ar
    25    19    21    1
    26    21    22    1
    27    19    20   ar
    28     7     8   ar
    29     8     9   ar
    30     9    10   ar
    31    10    11   ar
    32    11    12   ar
    33    12    13   ar
    34    13    14   ar
    35    29    30    1
    36    30    31    1
    37    31    26    1
    38    14     5   ar
    39    20    15   ar
    40    14     9   ar
    41    35    36    1
    42     1     4    1
    43    22    23    1
    44    22    24    1
@<TRIPOS>MOLECULE
*****
 41 44 0 0 0
SMALL
GASTEIGER

@<TRIPOS>ATOM
      1 N          60.4239   89.0906    8.2709 N.am    1  UNL1       -0.3009
      2 C          60.4556   89.7481    9.6187 C.2     1  UNL1        0.2459
      3 O          59.3408   90.6620   10.0338 O.2     1  UNL1       -0.2701
      4 H          61.1555   88.4908    7.9985 H       1  UNL1        0.1497
      5 C          61.6020   89.4918   10.5515 C.ar    1  UNL1        0.0563
      6 C          62.4893   90.6235   10.9779 C.ar    1  UNL1        0.0237
      7 C          63.6358   90.3672   11.9107 C.ar    1  UNL1        0.0814
      8 N          63.8948   88.9793   12.4170 N.ar    1  UNL1       -0.2454
      9 C          63.0075   87.8475   11.9906 C.ar    1  UNL1        0.0814
     10 C          63.2665   86.4596   12.4970 C.ar    1  UNL1        0.0191
     11 C          62.3792   85.3279   12.0706 C.ar    1  UNL1        0.0015
     12 C          61.2328   85.5842   11.1378 C.ar    1  UNL1        0.0001
     13 C          60.9737   86.9721   10.6315 C.ar    1  UNL1        0.0016
     14 C          61.8610   88.1038   11.0579 C.ar    1  UNL1        0.0221
     15 C          64.5231   91.4990   12.3371 C.ar    1  UNL1        0.0174
     16 C          65.0768   91.5339   13.7307 C.ar    1  UNL1        0.0015
     17 C          65.9641   92.6656   14.1570 C.ar    1  UNL1       -0.0002
     18 C          66.2978   93.7625   13.1897 C.ar    1  UNL1       -0.0029
     19 C          65.7441   93.7276   11.7961 C.ar    1  UNL1       -0.0066
     20 C          64.8568   92.5958   11.3698 C.ar    1  UNL1       -0.0014
     21 C          66.0778   94.8244   10.8288 C.3     1  UNL1        0.0922
     22 N          65.5690   96.2151   11.0672 N.3     1  UNL1       -0.3175
     23 H          64.5519   96.2229   10.9899 H       1  UNL1        0.1192
     24 H          65.9676   96.8468   10.3726 H       1  UNL1        0.1192
     25 C          59.2774   89.3468    7.3382 C.3     1  UNL1        0.0896
     26 C          59.7866   92.1673    3.8690 C.3     1  UNL1        0.0197
     27 C          58.4276   91.9495    4.4652 C.3     1  UNL1        0.0018
     28 C          58.2579   91.0094    5.6216 C.3     1  UNL1        0.0017
     29 C          59.4472   90.2870    6.1817 C.3     1  UNL1        0.0196
     30 C          60.8062   90.5048    5.5855 C.3     1  UNL1        0.0017
     31 C          60.9760   91.4450    4.4291 C.3     1  UNL1        0.0018
     32 C          59.9564   93.1075    2.7125 C.3     1  UNL1        0.0926
     33 C          61.7569   93.9565    1.0429 C.2     1  UNL1        0.4014
     34 O          61.4900   95.3684    1.4731 O.2     1  UNL1       -0.2264
     35 N          60.9901   92.8260    1.6626 N.am    1  UNL1       -0.2707
     36 H          61.1653   91.8993    1.3803 H       1  UNL1        0.1527
     37 O          62.7906   93.6750   -0.0070 O.3     1  UNL1       -0.4419
     38 C          64.5897   93.7916    1.1108 C.3     1  UNL1        0.0437
     39 C          64.0325   94.5130   -0.0804 C.3     1  UNL1        0.1378
     40 C          63.4752   95.2344   -1.2716 C.3     1  UNL1        0.0437
     41 C          65.2744   95.3510   -0.1540 C.3     1  UNL1        0.0437
@<TRIPOS>BOND
     1    38    39    1
     2    39    40    1
     3    39    41    1
     4    39    37    1
     5    37    33    1
     6    33    34    2
     7    33    35   am
     8    35    32    1
     9    26    32    1
    10    26    27    1
    11    27    28    1
    12    28    29    1
    13    29    25    1
    14    25     1    1
    15     1     2   am
    16     2     3    2
    17     2     5    1
    18     5     6   ar
    19     6     7   ar
    20     7    15    1
    21    15    16   ar
    22    16    17   ar
    23    17    18   ar
    24    18    19   ar
    25    19    21    1
    26    21    22    1
    27    19    20   ar
    28     7     8   ar
    29     8     9   ar
    30     9    10   ar
    31    10    11   ar
    32    11    12   ar
    33    12    13   ar
    34    13    14   ar
    35    29    30    1
    36    30    31    1
    37    31    26    1
    38    14     5   ar
    39    20    15   ar
    40    14     9   ar
    41    35    36    1
    42     1     4    1
    43    22    23    1
    44    22    24    1
