@<TRIPOS>MOLECULE
*****
 30 33 0 0 0
SMALL
GASTEIGER

@<TRIPOS>ATOM
      1 C          63.7840   87.7094   13.7340 C.ar    1  UNL1        0.1105
      2 C          64.5671   88.5236   14.7208 C.ar    1  UNL1        0.0200
      3 C          64.8112   89.9812   14.4644 C.ar    1  UNL1        0.0160
      4 C          64.2722   90.6245   13.2212 C.ar    1  UNL1        0.0504
      5 C          63.4891   89.8104   12.2344 C.ar    1  UNL1        0.0160
      6 C          63.2450   88.3528   12.4908 C.ar    1  UNL1        0.0200
      7 N          64.5163   92.0822   12.9648 N.am    1  UNL1       -0.2839
      8 C          65.9192   92.5945   12.8248 C.2     1  UNL1        0.2260
      9 O          67.0779   91.6491   12.9412 O.2     1  UNL1       -0.2748
     10 H          63.7558   92.7027   12.8884 H       1  UNL1        0.1549
     11 C          66.1633   94.0521   12.5685 C.3     1  UNL1        0.0812
     12 C          66.4792   95.4261   13.0807 C.3     1  UNL1        0.0143
     13 C          66.2702   95.2029   11.6122 C.3     1  UNL1        0.0330
     14 C          66.2113   95.7383   10.2123 C.ar    1  UNL1       -0.0029
     15 C          67.4304   95.6920    9.3396 C.ar    1  UNL1       -0.0011
     16 C          67.3715   96.2275    7.9397 C.ar    1  UNL1        0.0204
     17 C          66.0933   96.8093    7.4125 C.ar    1  UNL1        0.0989
     18 N          64.8742   96.8556    8.2851 N.ar    1  UNL1       -0.2426
     19 C          64.9332   96.3201    9.6851 C.ar    1  UNL1        0.0946
     20 S          63.5399   86.2517   13.9904 S.O2    1  UNL1        0.0305
     21 O          64.0131   86.4209   15.4036 O.2     1  UNL1       -0.1641
     22 O          63.0667   86.0824   12.5771 O.2     1  UNL1       -0.1641
     23 N          62.6697   82.4694   13.9388 N.ar    1  UNL1       -0.2500
     24 C          62.7471   83.8053   13.2611 C.ar    1  UNL1        0.1153
     25 C          63.2957   84.7941   14.2467 C.ar    1  UNL1        0.1497
     26 C          63.5573   84.0693   15.5336 C.ar    1  UNL1        0.1404
     27 N          63.1704   82.6326   15.3434 N.ar    1  UNL1       -0.1663
     28 C          62.7208   80.7445   11.9967 C.3     1  UNL1        0.0263
     29 C          62.1779   81.1943   13.3207 C.3     1  UNL1        0.1054
     30 C          61.1432   80.3690   14.0264 C.3     1  UNL1        0.0263
@<TRIPOS>BOND
     1    28    29    1
     2    29    30    1
     3    29    23    1
     4    23    24   ar
     5    24    25   ar
     6    25    20    1
     7    20    21    2
     8    20    22    2
     9    20     1    1
    10     1     2   ar
    11     2     3   ar
    12     3     4   ar
    13     4     7    1
    14     7     8   am
    15     8     9    2
    16    11     8    1
    17    11    12    1
    18    12    13    1
    19    13    14    1
    20    14    15   ar
    21    15    16   ar
    22    16    17   ar
    23    17    18   ar
    24    18    19   ar
    25     4     5   ar
    26     5     6   ar
    27    25    26   ar
    28    26    27   ar
    29    27    23   ar
    30     6     1   ar
    31    13    11    1
    32    19    14   ar
    33     7    10    1
@<TRIPOS>MOLECULE
*****
 30 33 0 0 0
SMALL
GASTEIGER

@<TRIPOS>ATOM
      1 C          65.1888   91.9009   12.8121 C.ar    1  UNL1        0.1105
      2 C          64.0824   91.0103   12.3298 C.ar    1  UNL1        0.0200
      3 C          63.7491   89.7549   13.0801 C.ar    1  UNL1        0.0160
      4 C          64.5222   89.3902   14.3127 C.ar    1  UNL1        0.0504
      5 C          65.6286   90.2808   14.7950 C.ar    1  UNL1        0.0160
      6 C          65.9619   91.5361   14.0447 C.ar    1  UNL1        0.0200
      7 N          64.1888   88.1348   15.0631 N.am    1  UNL1       -0.2839
      8 C          63.6934   86.9279   14.3230 C.2     1  UNL1        0.2260
      9 O          63.5314   86.9762   12.8325 O.2     1  UNL1       -0.2748
     10 H          64.2952   88.1031   16.0413 H       1  UNL1        0.1549
     11 C          63.3601   85.6725   15.0733 C.3     1  UNL1        0.0812
     12 C          63.0667   84.9710   16.3663 C.3     1  UNL1        0.0143
     13 C          63.0761   84.1996   15.0800 C.3     1  UNL1        0.0330
     14 C          62.9176   82.9039   14.3411 C.ar    1  UNL1       -0.0029
     15 C          61.6753   82.0834   14.5239 C.ar    1  UNL1       -0.0011
     16 C          61.5168   80.7877   13.7850 C.ar    1  UNL1        0.0204
     17 C          62.6006   80.3125   12.8632 C.ar    1  UNL1        0.0989
     18 N          63.8429   81.1330   12.6804 N.ar    1  UNL1       -0.2426
     19 C          64.0014   82.4288   13.4194 C.ar    1  UNL1        0.0946
     20 S          65.5222   93.1562   12.0617 S.O2    1  UNL1        0.0305
     21 O          65.8405   93.8451   13.3556 O.2     1  UNL1       -0.1641
     22 O          65.2039   92.4674   10.7679 O.2     1  UNL1       -0.1641
     23 N          66.2860   95.9771    9.5074 N.ar    1  UNL1       -0.2500
     24 C          65.9180   94.5569    9.8197 C.ar    1  UNL1        0.1153
     25 C          65.8555   94.4115   11.3114 C.ar    1  UNL1        0.1497
     26 C          66.1849   95.7419   11.9209 C.ar    1  UNL1        0.1404
     27 N          66.4510   96.7095   10.8060 N.ar    1  UNL1       -0.1663
     28 C          65.2562   96.8549    7.2895 C.3     1  UNL1        0.0263
     29 C          66.4587   96.5622    8.1370 C.3     1  UNL1        0.1054
     30 C          67.8338   96.8546    7.6142 C.3     1  UNL1        0.0263
@<TRIPOS>BOND
     1    28    29    1
     2    29    30    1
     3    29    23    1
     4    23    24   ar
     5    24    25   ar
     6    25    20    1
     7    20    21    2
     8    20    22    2
     9    20     1    1
    10     1     2   ar
    11     2     3   ar
    12     3     4   ar
    13     4     7    1
    14     7     8   am
    15     8     9    2
    16    11     8    1
    17    11    12    1
    18    12    13    1
    19    13    14    1
    20    14    15   ar
    21    15    16   ar
    22    16    17   ar
    23    17    18   ar
    24    18    19   ar
    25     4     5   ar
    26     5     6   ar
    27    25    26   ar
    28    26    27   ar
    29    27    23   ar
    30     6     1   ar
    31    13    11    1
    32    19    14   ar
    33     7    10    1
@<TRIPOS>MOLECULE
*****
 30 33 0 0 0
SMALL
GASTEIGER

@<TRIPOS>ATOM
      1 C          61.6936   86.9939   10.5487 C.ar    1  UNL1        0.1105
      2 C          62.2103   88.3997   10.6304 C.ar    1  UNL1        0.0200
      3 C          61.6749   89.4505    9.7034 C.ar    1  UNL1        0.0160
      4 C          60.6230   89.0955    8.6948 C.ar    1  UNL1        0.0504
      5 C          60.1063   87.6896    8.6131 C.ar    1  UNL1        0.0160
      6 C          60.6416   86.6389    9.5401 C.ar    1  UNL1        0.0200
      7 N          60.0876   90.1463    7.7678 N.am    1  UNL1       -0.2839
      8 C          59.4924   89.7505    6.4492 C.2     1  UNL1        0.2260
      9 O          59.4325   88.3038    6.0574 O.2     1  UNL1       -0.2748
     10 H          60.1270   91.0958    8.0250 H       1  UNL1        0.1549
     11 C          58.9571   90.8013    5.5222 C.3     1  UNL1        0.0812
     12 C          57.8271   91.6734    5.0613 C.3     1  UNL1        0.0143
     13 C          59.1599   91.7493    4.3775 C.3     1  UNL1        0.0330
     14 C          60.0466   92.3403    3.3219 C.ar    1  UNL1       -0.0029
     15 C          61.5313   92.1379    3.3899 C.ar    1  UNL1       -0.0011
     16 C          62.4180   92.7290    2.3342 C.ar    1  UNL1        0.0204
     17 C          61.8199   93.5225    1.2105 C.ar    1  UNL1        0.0989
     18 N          60.3352   93.7249    1.1425 N.ar    1  UNL1       -0.2426
     19 C          59.4485   93.1338    2.1982 C.ar    1  UNL1        0.0946
     20 S          62.2289   85.9431   11.4757 S.O2    1  UNL1        0.0305
     21 O          62.7619   87.0134   12.3814 O.2     1  UNL1       -0.1641
     22 O          61.6960   84.8727   10.5700 O.2     1  UNL1       -0.1641
     23 N          63.1953   82.7517   13.4623 N.ar    1  UNL1       -0.2500
     24 C          62.4435   83.4277   12.3542 C.ar    1  UNL1        0.1153
     25 C          62.7642   84.8922   12.4026 C.ar    1  UNL1        0.1497
     26 C          63.7142   85.1214   13.5405 C.ar    1  UNL1        0.1404
     27 N          63.9806   83.7985   14.1955 N.ar    1  UNL1       -0.1663
     28 C          61.8700   80.5338   13.7351 C.3     1  UNL1        0.0263
     29 C          63.1667   81.2863   13.7813 C.3     1  UNL1        0.1054
     30 C          64.4349   80.5734   14.1464 C.3     1  UNL1        0.0263
@<TRIPOS>BOND
     1    28    29    1
     2    29    30    1
     3    29    23    1
     4    23    24   ar
     5    24    25   ar
     6    25    20    1
     7    20    21    2
     8    20    22    2
     9    20     1    1
    10     1     2   ar
    11     2     3   ar
    12     3     4   ar
    13     4     7    1
    14     7     8   am
    15     8     9    2
    16    11     8    1
    17    11    12    1
    18    12    13    1
    19    13    14    1
    20    14    15   ar
    21    15    16   ar
    22    16    17   ar
    23    17    18   ar
    24    18    19   ar
    25     4     5   ar
    26     5     6   ar
    27    25    26   ar
    28    26    27   ar
    29    27    23   ar
    30     6     1   ar
    31    13    11    1
    32    19    14   ar
    33     7    10    1
@<TRIPOS>MOLECULE
*****
 30 33 0 0 0
SMALL
GASTEIGER

@<TRIPOS>ATOM
      1 C          60.9701   86.9738    9.4615 C.ar    1  UNL1        0.1105
      2 C          60.9974   88.4597    9.6648 C.ar    1  UNL1        0.0200
      3 C          60.2952   89.3625    8.6943 C.ar    1  UNL1        0.0160
      4 C          59.5657   88.7793    7.5206 C.ar    1  UNL1        0.0504
      5 C          59.5384   87.2935    7.3172 C.ar    1  UNL1        0.0160
      6 C          60.2406   86.3907    8.2877 C.ar    1  UNL1        0.0200
      7 N          58.8634   89.6822    6.5501 N.am    1  UNL1       -0.2839
      8 C          59.6593   90.5118    5.5867 C.2     1  UNL1        0.2260
      9 O          61.1575   90.4386    5.5937 O.2     1  UNL1       -0.2748
     10 H          57.8801   89.7302    6.5454 H       1  UNL1        0.1549
     11 C          58.9571   91.4146    4.6162 C.3     1  UNL1        0.0812
     12 C          57.7080   92.1047    4.1542 C.3     1  UNL1        0.0143
     13 C          58.9899   92.2883    3.3973 C.3     1  UNL1        0.0330
     14 C          59.7490   92.8986    2.2566 C.ar    1  UNL1       -0.0029
     15 C          61.2349   93.0781    2.3552 C.ar    1  UNL1       -0.0011
     16 C          61.9940   93.6884    1.2145 C.ar    1  UNL1        0.0204
     17 C          61.2671   94.1193   -0.0249 C.ar    1  UNL1        0.0989
     18 N          59.7811   93.9399   -0.1235 N.ar    1  UNL1       -0.2426
     19 C          59.0221   93.3295    1.0173 C.ar    1  UNL1        0.0946
     20 S          61.6724   86.0710   10.4320 S.O2    1  UNL1        0.0305
     21 O          60.9439   86.7255   11.5681 O.2     1  UNL1       -0.1641
     22 O          62.4008   85.4164    9.2959 O.2     1  UNL1       -0.1641
     23 N          63.4778   84.3358   13.3976 N.ar    1  UNL1       -0.2500
     24 C          62.8239   85.5386   12.7848 C.ar    1  UNL1        0.1153
     25 C          62.3746   85.1682   11.4024 C.ar    1  UNL1        0.1497
     26 C          62.7509   83.7364   11.1608 C.ar    1  UNL1        0.1404
     27 N          63.4327   83.2219   12.3939 N.ar    1  UNL1       -0.1663
     28 C          64.4016   85.5196   15.5178 C.3     1  UNL1        0.0263
     29 C          64.0725   84.2600   14.7726 C.3     1  UNL1        0.1054
     30 C          64.3381   82.9249   15.4024 C.3     1  UNL1        0.0263
@<TRIPOS>BOND
     1    28    29    1
     2    29    30    1
     3    29    23    1
     4    23    24   ar
     5    24    25   ar
     6    25    20    1
     7    20    21    2
     8    20    22    2
     9    20     1    1
    10     1     2   ar
    11     2     3   ar
    12     3     4   ar
    13     4     7    1
    14     7     8   am
    15     8     9    2
    16    11     8    1
    17    11    12    1
    18    12    13    1
    19    13    14    1
    20    14    15   ar
    21    15    16   ar
    22    16    17   ar
    23    17    18   ar
    24    18    19   ar
    25     4     5   ar
    26     5     6   ar
    27    25    26   ar
    28    26    27   ar
    29    27    23   ar
    30     6     1   ar
    31    13    11    1
    32    19    14   ar
    33     7    10    1
@<TRIPOS>MOLECULE
*****
 30 33 0 0 0
SMALL
GASTEIGER

@<TRIPOS>ATOM
      1 C          62.3534   94.2529    0.0123 C.ar    1  UNL1        0.1105
      2 C          61.8888   92.8413   -0.1915 C.ar    1  UNL1        0.0200
      3 C          60.9579   92.2078    0.7995 C.ar    1  UNL1        0.0160
      4 C          60.4917   92.9857    1.9942 C.ar    1  UNL1        0.0504
      5 C          60.9563   94.3973    2.1980 C.ar    1  UNL1        0.0160
      6 C          61.8872   95.0309    1.2071 C.ar    1  UNL1        0.0200
      7 N          59.5607   92.3521    2.9851 N.am    1  UNL1       -0.2839
      8 C          60.1138   91.5943    4.1555 C.2     1  UNL1        0.2260
      9 O          61.5979   91.4701    4.3350 O.2     1  UNL1       -0.2748
     10 H          58.5867   92.4336    2.8674 H       1  UNL1        0.1549
     11 C          59.1829   90.9607    5.1465 C.3     1  UNL1        0.0812
     12 C          57.8063   90.8089    5.7226 C.3     1  UNL1        0.0143
     13 C          58.9471   90.0149    6.2866 C.3     1  UNL1        0.0330
     14 C          59.4696   89.0105    7.2705 C.ar    1  UNL1       -0.0029
     15 C          59.3059   87.5436    7.0034 C.ar    1  UNL1       -0.0011
     16 C          59.8284   86.5392    7.9873 C.ar    1  UNL1        0.0204
     17 C          60.5146   87.0017    9.2384 C.ar    1  UNL1        0.0989
     18 N          60.6783   88.4686    9.5056 N.ar    1  UNL1       -0.2426
     19 C          60.1557   89.4731    8.5216 C.ar    1  UNL1        0.0946
     20 S          63.2844   94.8865   -0.9786 S.O2    1  UNL1        0.0305
     21 O          62.6889   94.0507   -2.0726 O.2     1  UNL1       -0.1641
     22 O          63.8799   95.7224    0.1153 O.2     1  UNL1       -0.1641
     23 N          65.2988   96.1356   -4.0523 N.ar    1  UNL1       -0.2500
     24 C          64.1977   95.3107   -3.4547 C.ar    1  UNL1        0.1153
     25 C          64.2153   95.5202   -1.9695 C.ar    1  UNL1        0.1497
     26 C          65.3272   96.4746   -1.6491 C.ar    1  UNL1        0.1404
     27 N          65.9969   96.8550   -2.9363 N.ar    1  UNL1       -0.1663
     28 C          66.9438   96.8346   -5.9378 C.3     1  UNL1        0.0263
     29 C          65.6416   96.2254   -5.5098 C.3     1  UNL1        0.1054
     30 C          64.6823   95.7061   -6.5393 C.3     1  UNL1        0.0263
@<TRIPOS>BOND
     1    28    29    1
     2    29    30    1
     3    29    23    1
     4    23    24   ar
     5    24    25   ar
     6    25    20    1
     7    20    21    2
     8    20    22    2
     9    20     1    1
    10     1     2   ar
    11     2     3   ar
    12     3     4   ar
    13     4     7    1
    14     7     8   am
    15     8     9    2
    16    11     8    1
    17    11    12    1
    18    12    13    1
    19    13    14    1
    20    14    15   ar
    21    15    16   ar
    22    16    17   ar
    23    17    18   ar
    24    18    19   ar
    25     4     5   ar
    26     5     6   ar
    27    25    26   ar
    28    26    27   ar
    29    27    23   ar
    30     6     1   ar
    31    13    11    1
    32    19    14   ar
    33     7    10    1
@<TRIPOS>MOLECULE
*****
 30 33 0 0 0
SMALL
GASTEIGER

@<TRIPOS>ATOM
      1 C          61.0666   93.2954    1.8239 C.ar    1  UNL1        0.1105
      2 C          62.2534   92.4551    2.1918 C.ar    1  UNL1        0.0200
      3 C          62.2000   91.5710    3.4023 C.ar    1  UNL1        0.0160
      4 C          60.9598   91.5273    4.2450 C.ar    1  UNL1        0.0504
      5 C          59.7731   92.3676    3.8771 C.ar    1  UNL1        0.0160
      6 C          59.8265   93.2516    2.6665 C.ar    1  UNL1        0.0200
      7 N          60.9065   90.6431    5.4556 N.am    1  UNL1       -0.2839
      8 C          59.5873   90.1302    5.9522 C.2     1  UNL1        0.2260
      9 O          58.3214   90.5013    5.2382 O.2     1  UNL1       -0.2748
     10 H          61.7373   90.3995    5.9242 H       1  UNL1        0.1549
     11 C          59.5340   89.2461    7.1628 C.3     1  UNL1        0.0812
     12 C          59.0251   88.0137    7.8499 C.3     1  UNL1        0.0143
     13 C          59.9505   88.9471    8.5725 C.3     1  UNL1        0.0330
     14 C          60.7253   89.3135    9.8035 C.ar    1  UNL1       -0.0029
     15 C          62.0559   89.9943    9.6773 C.ar    1  UNL1       -0.0011
     16 C          62.8307   90.3607   10.9083 C.ar    1  UNL1        0.0204
     17 C          62.2748   90.0463   12.2656 C.ar    1  UNL1        0.0989
     18 N          60.9442   89.3655   12.3918 N.ar    1  UNL1       -0.2426
     19 C          60.1694   88.9991   11.1607 C.ar    1  UNL1        0.0946
     20 S          61.1200   94.1795    0.6132 S.O2    1  UNL1        0.0305
     21 O          62.5959   93.9370    0.5011 O.2     1  UNL1       -0.1641
     22 O          59.6440   94.4220    0.7254 O.2     1  UNL1       -0.1641
     23 N          61.7947   95.9923   -2.7519 N.ar    1  UNL1       -0.2500
     24 C          62.0773   94.8845   -1.7808 C.ar    1  UNL1        0.1153
     25 C          61.1733   95.0636   -0.5973 C.ar    1  UNL1        0.1497
     26 C          60.3318   96.2820   -0.8370 C.ar    1  UNL1        0.1404
     27 N          60.7158   96.8560   -2.1685 N.ar    1  UNL1       -0.1663
     28 C          63.9639   96.0860   -4.1787 C.3     1  UNL1        0.0263
     29 C          62.4719   96.1999   -4.0741 C.3     1  UNL1        0.1054
     30 C          61.6571   96.5213   -5.2918 C.3     1  UNL1        0.0263
@<TRIPOS>BOND
     1    28    29    1
     2    29    30    1
     3    29    23    1
     4    23    24   ar
     5    24    25   ar
     6    25    20    1
     7    20    21    2
     8    20    22    2
     9    20     1    1
    10     1     2   ar
    11     2     3   ar
    12     3     4   ar
    13     4     7    1
    14     7     8   am
    15     8     9    2
    16    11     8    1
    17    11    12    1
    18    12    13    1
    19    13    14    1
    20    14    15   ar
    21    15    16   ar
    22    16    17   ar
    23    17    18   ar
    24    18    19   ar
    25     4     5   ar
    26     5     6   ar
    27    25    26   ar
    28    26    27   ar
    29    27    23   ar
    30     6     1   ar
    31    13    11    1
    32    19    14   ar
    33     7    10    1
@<TRIPOS>MOLECULE
*****
 30 33 0 0 0
SMALL
GASTEIGER

@<TRIPOS>ATOM
      1 C          64.5977   90.1435   13.2848 C.ar    1  UNL1        0.1105
      2 C          63.6657   89.3987   12.3756 C.ar    1  UNL1        0.0200
      3 C          63.2051   88.0188   12.7409 C.ar    1  UNL1        0.0160
      4 C          63.6764   87.3835   14.0154 C.ar    1  UNL1        0.0504
      5 C          64.6084   88.1283   14.9246 C.ar    1  UNL1        0.0160
      6 C          65.0690   89.5082   14.5593 C.ar    1  UNL1        0.0200
      7 N          63.2157   86.0035   14.3806 N.am    1  UNL1       -0.2839
      8 C          63.2309   84.9112   13.3527 C.2     1  UNL1        0.2260
      9 O          63.7067   85.1988   11.9596 O.2     1  UNL1       -0.2748
     10 H          62.9034   85.8147   15.2950 H       1  UNL1        0.1549
     11 C          62.7702   83.5311   13.7180 C.3     1  UNL1        0.0812
     12 C          62.1833   82.5798   14.7182 C.3     1  UNL1        0.0143
     13 C          62.5592   82.0923   13.3503 C.3     1  UNL1        0.0330
     14 C          62.6543   80.9801   12.3484 C.ar    1  UNL1       -0.0029
     15 C          62.9790   81.2865   10.9164 C.ar    1  UNL1       -0.0011
     16 C          63.0742   80.1743    9.9144 C.ar    1  UNL1        0.0204
     17 C          62.8447   78.7557   10.3444 C.ar    1  UNL1        0.0989
     18 N          62.5200   78.4493   11.7765 N.ar    1  UNL1       -0.2426
     19 C          62.4248   79.5616   12.7784 C.ar    1  UNL1        0.0946
     20 S          65.0583   91.5235   12.9196 S.O2    1  UNL1        0.0305
     21 O          66.1011   91.4603   13.9959 O.2     1  UNL1       -0.1641
     22 O          64.0156   91.5867   11.8433 O.2     1  UNL1       -0.1641
     23 N          65.9654   94.9305   11.2963 N.ar    1  UNL1       -0.2500
     24 C          65.3651   93.5583   11.2136 C.ar    1  UNL1        0.1153
     25 C          65.5190   92.9035   12.5543 C.ar    1  UNL1        0.1497
     26 C          66.2143   93.8709   13.4657 C.ar    1  UNL1        0.1404
     27 N          66.4902   95.1237   12.6882 N.ar    1  UNL1       -0.1663
     28 C          67.2819   96.0711    9.3686 C.3     1  UNL1        0.0263
     29 C          66.0296   95.9334   10.1827 C.3     1  UNL1        0.1054
     30 C          64.8415   96.7986    9.8832 C.3     1  UNL1        0.0263
@<TRIPOS>BOND
     1    28    29    1
     2    29    30    1
     3    29    23    1
     4    23    24   ar
     5    24    25   ar
     6    25    20    1
     7    20    21    2
     8    20    22    2
     9    20     1    1
    10     1     2   ar
    11     2     3   ar
    12     3     4   ar
    13     4     7    1
    14     7     8   am
    15     8     9    2
    16    11     8    1
    17    11    12    1
    18    12    13    1
    19    13    14    1
    20    14    15   ar
    21    15    16   ar
    22    16    17   ar
    23    17    18   ar
    24    18    19   ar
    25     4     5   ar
    26     5     6   ar
    27    25    26   ar
    28    26    27   ar
    29    27    23   ar
    30     6     1   ar
    31    13    11    1
    32    19    14   ar
    33     7    10    1
@<TRIPOS>MOLECULE
*****
 30 33 0 0 0
SMALL
GASTEIGER

@<TRIPOS>ATOM
      1 C          63.6136   84.4840   13.7049 C.ar    1  UNL1        0.1105
      2 C          64.3516   84.7717   14.9787 C.ar    1  UNL1        0.0200
      3 C          64.6854   86.1864   15.3489 C.ar    1  UNL1        0.0160
      4 C          64.2813   87.3134   14.4454 C.ar    1  UNL1        0.0504
      5 C          63.5433   87.0258   13.1716 C.ar    1  UNL1        0.0160
      6 C          63.2094   85.6111   12.8013 C.ar    1  UNL1        0.0200
      7 N          64.6152   88.7282   14.8157 N.am    1  UNL1       -0.2839
      8 C          63.6869   89.5123   15.6952 C.2     1  UNL1        0.2260
      9 O          62.4247   88.8817   16.2043 O.2     1  UNL1       -0.2748
     10 H          65.4436   89.1421   14.4816 H       1  UNL1        0.1549
     11 C          64.0208   90.9270   16.0655 C.3     1  UNL1        0.0812
     12 C          63.6152   92.2464   16.6527 C.3     1  UNL1        0.0143
     13 C          65.0046   92.0580   16.1197 C.3     1  UNL1        0.0330
     14 C          66.3748   92.6022   15.8433 C.ar    1  UNL1       -0.0029
     15 C          67.5501   92.1132   16.6367 C.ar    1  UNL1       -0.0011
     16 C          68.9203   92.6574   16.3603 C.ar    1  UNL1        0.0204
     17 C          69.1151   93.6907   15.2904 C.ar    1  UNL1        0.0989
     18 N          67.9398   94.1797   14.4971 N.ar    1  UNL1       -0.2426
     19 C          66.5696   93.6354   14.7735 C.ar    1  UNL1        0.0946
     20 S          63.2797   83.0693   13.3345 S.O2    1  UNL1        0.0305
     21 O          63.1905   82.7098   14.7880 O.2     1  UNL1       -0.1641
     22 O          63.3689   83.4288   11.8810 O.2     1  UNL1       -0.1641
     23 N          62.6884   79.5989   11.6999 N.ar    1  UNL1       -0.2500
     24 C          63.1643   81.0193   11.6230 C.ar    1  UNL1        0.1153
     25 C          62.9458   81.6546   12.9642 C.ar    1  UNL1        0.1497
     26 C          62.3349   80.6269   13.8699 C.ar    1  UNL1        0.1404
     27 N          62.1757   79.3564   13.0886 N.ar    1  UNL1       -0.1663
     28 C          62.6375   79.0584    9.1591 C.3     1  UNL1        0.0263
     29 C          62.7196   78.5970   10.5841 C.3     1  UNL1        0.1054
     30 C          62.8329   77.1336   10.8930 C.3     1  UNL1        0.0263
@<TRIPOS>BOND
     1    28    29    1
     2    29    30    1
     3    29    23    1
     4    23    24   ar
     5    24    25   ar
     6    25    20    1
     7    20    21    2
     8    20    22    2
     9    20     1    1
    10     1     2   ar
    11     2     3   ar
    12     3     4   ar
    13     4     7    1
    14     7     8   am
    15     8     9    2
    16    11     8    1
    17    11    12    1
    18    12    13    1
    19    13    14    1
    20    14    15   ar
    21    15    16   ar
    22    16    17   ar
    23    17    18   ar
    24    18    19   ar
    25     4     5   ar
    26     5     6   ar
    27    25    26   ar
    28    26    27   ar
    29    27    23   ar
    30     6     1   ar
    31    13    11    1
    32    19    14   ar
    33     7    10    1
@<TRIPOS>MOLECULE
*****
 30 33 0 0 0
SMALL
GASTEIGER

@<TRIPOS>ATOM
      1 C          61.0156   92.7341    2.8232 C.ar    1  UNL1        0.1105
      2 C          60.2798   93.8588    2.1573 C.ar    1  UNL1        0.0200
      3 C          60.9620   94.6826    1.1057 C.ar    1  UNL1        0.0160
      4 C          62.3800   94.3817    0.7199 C.ar    1  UNL1        0.0504
      5 C          63.1158   93.2569    1.3859 C.ar    1  UNL1        0.0160
      6 C          62.4336   92.4331    2.4375 C.ar    1  UNL1        0.0200
      7 N          63.0621   95.2055   -0.3317 N.am    1  UNL1       -0.2839
      8 C          63.1635   94.6925   -1.7376 C.2     1  UNL1        0.2260
      9 O          62.5827   93.3557   -2.0919 O.2     1  UNL1       -0.2748
     10 H          63.4433   96.0829   -0.0992 H       1  UNL1        0.1549
     11 C          63.8456   95.5164   -2.7893 C.3     1  UNL1        0.0812
     12 C          64.2488   96.8556   -3.3315 C.3     1  UNL1        0.0143
     13 C          64.6240   95.6042   -4.0685 C.3     1  UNL1        0.0330
     14 C          65.2899   94.9324   -5.2326 C.ar    1  UNL1       -0.0029
     15 C          66.1240   95.7360   -6.1857 C.ar    1  UNL1       -0.0011
     16 C          66.7900   95.0642   -7.3498 C.ar    1  UNL1        0.0204
     17 C          66.6218   93.5886   -7.5608 C.ar    1  UNL1        0.0989
     18 N          65.7877   92.7850   -6.6078 N.ar    1  UNL1       -0.2426
     19 C          65.1217   93.4569   -5.4436 C.ar    1  UNL1        0.0946
     20 S          60.3334   91.9102    3.8749 S.O2    1  UNL1        0.0305
     21 O          59.0026   92.4320    3.4204 O.2     1  UNL1       -0.1641
     22 O          61.6643   91.3884    4.3293 O.2     1  UNL1       -0.1641
     23 N          59.2666   89.5531    6.7682 N.ar    1  UNL1       -0.2500
     24 C          60.3263   90.1726    5.9060 C.ar    1  UNL1        0.1153
     25 C          59.6513   91.0864    4.9265 C.ar    1  UNL1        0.1497
     26 C          58.1745   91.0316    5.1833 C.ar    1  UNL1        0.1404
     27 N          57.9367   90.0840    6.3215 N.ar    1  UNL1       -0.1663
     28 C          58.9741   87.1730    7.7680 C.3     1  UNL1        0.0263
     29 C          59.4965   88.5745    7.8815 C.3     1  UNL1        0.1054
     30 C          60.2487   88.9974    9.1084 C.3     1  UNL1        0.0263
@<TRIPOS>BOND
     1    28    29    1
     2    29    30    1
     3    29    23    1
     4    23    24   ar
     5    24    25   ar
     6    25    20    1
     7    20    21    2
     8    20    22    2
     9    20     1    1
    10     1     2   ar
    11     2     3   ar
    12     3     4   ar
    13     4     7    1
    14     7     8   am
    15     8     9    2
    16    11     8    1
    17    11    12    1
    18    12    13    1
    19    13    14    1
    20    14    15   ar
    21    15    16   ar
    22    16    17   ar
    23    17    18   ar
    24    18    19   ar
    25     4     5   ar
    26     5     6   ar
    27    25    26   ar
    28    26    27   ar
    29    27    23   ar
    30     6     1   ar
    31    13    11    1
    32    19    14   ar
    33     7    10    1
