@<TRIPOS>MOLECULE
*****
 32 35 0 0 0
SMALL
GASTEIGER

@<TRIPOS>ATOM
      1 C          64.0692   91.2174   12.3946 C.ar    1  UNL1        0.1316
      2 N          63.2103   90.4318   13.3408 N.ar    1  UNL1       -0.1798
      3 C          63.4835   90.4767   14.8150 C.ar    1  UNL1        0.3218
      4 N          64.6155   91.3072   15.3431 N.ar    1  UNL1       -0.1829
      5 C          65.4744   92.0928   14.3969 C.ar    1  UNL1        0.1416
      6 CL         66.6064   92.9233   14.9250 Cl      1  UNL1       -0.0614
      7 C          65.2012   92.0479   12.9227 C.ar    1  UNL1        0.0382
      8 C          66.0600   92.8335   11.9766 C.3     1  UNL1        0.0365
      9 N          63.7960   91.1726   10.9204 N.pl3   1  UNL1       -0.3141
     10 H          64.5265   91.3297   10.2794 H       1  UNL1        0.1485
     11 C          62.4097   90.8882   10.4228 C.3     1  UNL1        0.1231
     12 C          61.6021   85.6906   10.8844 C.3     1  UNL1        0.0594
     13 C          61.3946   87.1757   10.9243 C.ar    1  UNL1        0.0880
     14 N          60.1551   87.8805   11.3902 N.ar    1  UNL1       -0.2473
     15 C          60.3846   89.3571   11.2591 C.ar    1  UNL1        0.0631
     16 C          59.4048   90.4364   11.6128 C.3     1  UNL1        0.0523
     17 C          61.7658   89.5648   10.7121 C.ar    1  UNL1        0.0416
     18 S          62.3900   88.2166   10.5052 S.2     1  UNL1       -0.0738
     19 O          62.6247   89.6911   15.7612 O.3     1  UNL1       -0.4467
     20 C          63.2540   88.7173   16.7129 C.3     1  UNL1        0.2091
     21 C          62.4715   87.5351   17.2028 C.3     1  UNL1        0.0537
     22 C          63.1290   86.1908   17.3053 C.3     1  UNL1        0.0496
     23 C          63.3447   85.3654   16.0715 C.ar    1  UNL1        0.0591
     24 C          64.4084   85.7521   15.0870 C.ar    1  UNL1        0.0147
     25 C          64.6242   84.9268   13.8533 C.ar    1  UNL1        0.0027
     26 C          63.7763   83.7148   13.6039 C.ar    1  UNL1        0.0177
     27 C          63.9921   82.8895   12.3701 C.ar    1  UNL1        0.0015
     28 C          63.1443   81.6775   12.1208 C.ar    1  UNL1        0.0001
     29 C          62.0807   81.2908   13.1052 C.ar    1  UNL1        0.0015
     30 C          61.8649   82.1161   14.3390 C.ar    1  UNL1        0.0191
     31 C          62.7127   83.3281   14.5883 C.ar    1  UNL1        0.0809
     32 N          62.4969   84.1534   15.8222 N.ar    1  UNL1       -0.2497
@<TRIPOS>BOND
     1    12    13    1
     2    13    14   ar
     3    14    15   ar
     4    15    16    1
     5    15    17   ar
     6    17    11    1
     7    11     9    1
     8     9     1    1
     9     1     2   ar
    10     2     3   ar
    11     3    19    1
    12    19    20    1
    13    20    21    1
    14    21    22    1
    15    22    23    1
    16    23    24   ar
    17    24    25   ar
    18    25    26   ar
    19    26    27   ar
    20    27    28   ar
    21    28    29   ar
    22    29    30   ar
    23    30    31   ar
    24    31    32   ar
    25     3     4   ar
    26     4     5   ar
    27     5     6    1
    28     5     7   ar
    29     7     8    1
    30    17    18   ar
    31    18    13   ar
    32     7     1   ar
    33    32    23   ar
    34    31    26   ar
    35     9    10    1
@<TRIPOS>MOLECULE
*****
 32 35 0 0 0
SMALL
GASTEIGER

@<TRIPOS>ATOM
      1 C          64.7833   91.1899   13.0566 C.ar    1  UNL1        0.1316
      2 N          64.8085   90.1897   14.1742 N.ar    1  UNL1       -0.1798
      3 C          63.9772   88.9443   14.0849 C.ar    1  UNL1        0.3218
      4 N          63.1209   88.6990   12.8781 N.ar    1  UNL1       -0.1829
      5 C          63.0958   89.6993   11.7605 C.ar    1  UNL1        0.1416
      6 CL         62.2394   89.4540   10.5536 Cl      1  UNL1       -0.0614
      7 C          63.9270   90.9447   11.8498 C.ar    1  UNL1        0.0382
      8 C          63.9019   91.9448   10.7322 C.3     1  UNL1        0.0365
      9 N          65.6145   92.4353   13.1459 N.pl3   1  UNL1       -0.3141
     10 H          65.3426   93.1666   13.7464 H       1  UNL1        0.1485
     11 C          66.8601   92.5666   12.3204 C.3     1  UNL1        0.1231
     12 C          66.1047   96.8543    9.3329 C.3     1  UNL1        0.0594
     13 C          66.5528   95.5004    9.7979 C.ar    1  UNL1        0.0880
     14 N          67.3703   94.5225    9.0069 N.ar    1  UNL1       -0.2473
     15 C          67.5848   93.3045    9.8556 C.ar    1  UNL1        0.0631
     16 C          68.3499   92.0769    9.4585 C.3     1  UNL1        0.0523
     17 C          66.9000   93.5296   11.1710 C.ar    1  UNL1        0.0416
     18 S          66.2622   94.8867   11.1354 S.2     1  UNL1       -0.0738
     19 O          64.0024   87.9441   15.2025 O.3     1  UNL1       -0.4467
     20 C          64.4463   86.5358   14.9388 C.3     1  UNL1        0.2091
     21 C          63.7514   85.3913   15.6149 C.3     1  UNL1        0.0537
     22 C          63.3165   84.1995   14.8146 C.3     1  UNL1        0.0496
     23 C          63.3165   84.2620   13.3158 C.ar    1  UNL1        0.0591
     24 C          64.2891   83.4329   12.5306 C.ar    1  UNL1        0.0147
     25 C          64.2892   83.4954   11.0320 C.ar    1  UNL1        0.0027
     26 C          63.3165   84.3871   10.3184 C.ar    1  UNL1        0.0177
     27 C          63.3166   84.4495    8.8198 C.ar    1  UNL1        0.0015
     28 C          62.3440   85.3412    8.1063 C.ar    1  UNL1        0.0001
     29 C          61.3714   86.1703    8.8915 C.ar    1  UNL1        0.0015
     30 C          61.3713   86.1078   10.3902 C.ar    1  UNL1        0.0191
     31 C          62.3439   85.2162   11.1036 C.ar    1  UNL1        0.0809
     32 N          62.3439   85.1537   12.6024 N.ar    1  UNL1       -0.2497
@<TRIPOS>BOND
     1    12    13    1
     2    13    14   ar
     3    14    15   ar
     4    15    16    1
     5    15    17   ar
     6    17    11    1
     7    11     9    1
     8     9     1    1
     9     1     2   ar
    10     2     3   ar
    11     3    19    1
    12    19    20    1
    13    20    21    1
    14    21    22    1
    15    22    23    1
    16    23    24   ar
    17    24    25   ar
    18    25    26   ar
    19    26    27   ar
    20    27    28   ar
    21    28    29   ar
    22    29    30   ar
    23    30    31   ar
    24    31    32   ar
    25     3     4   ar
    26     4     5   ar
    27     5     6    1
    28     5     7   ar
    29     7     8    1
    30    17    18   ar
    31    18    13   ar
    32     7     1   ar
    33    32    23   ar
    34    31    26   ar
    35     9    10    1
@<TRIPOS>MOLECULE
*****
 32 35 0 0 0
SMALL
GASTEIGER

@<TRIPOS>ATOM
      1 C          63.5198   90.4831   12.5776 C.ar    1  UNL1        0.1316
      2 N          63.1272   89.9845   13.9367 N.ar    1  UNL1       -0.1798
      3 C          63.7625   90.5702   15.1629 C.ar    1  UNL1        0.3218
      4 N          64.7905   91.6545   15.0298 N.ar    1  UNL1       -0.1829
      5 C          65.1831   92.1530   13.6706 C.ar    1  UNL1        0.1416
      6 CL         66.2111   93.2373   13.5376 Cl      1  UNL1       -0.0614
      7 C          64.5478   91.5673   12.4446 C.ar    1  UNL1        0.0382
      8 C          64.9404   92.0659   11.0855 C.3     1  UNL1        0.0365
      9 N          62.8845   89.8974   11.3516 N.pl3   1  UNL1       -0.3141
     10 H          62.7727   90.4490   10.5438 H       1  UNL1        0.1485
     11 C          62.4194   88.4713   11.3562 C.3     1  UNL1        0.1231
     12 C          59.0494   88.3400    7.2934 C.3     1  UNL1        0.0594
     13 C          59.9702   87.9121    8.3976 C.ar    1  UNL1        0.0880
     14 N          60.2975   86.4975    8.7742 N.ar    1  UNL1       -0.2473
     15 C          61.2548   86.5348    9.9284 C.ar    1  UNL1        0.0631
     16 C          61.8443   85.3436   10.6237 C.3     1  UNL1        0.0523
     17 C          61.5192   87.9724   10.2651 C.ar    1  UNL1        0.0416
     18 S          60.7252   88.8236    9.3190 S.2     1  UNL1       -0.0738
     19 O          63.3699   90.0717   16.5220 O.3     1  UNL1       -0.4467
     20 C          62.6135   88.7836   16.6587 C.3     1  UNL1        0.2091
     21 C          63.1266   87.7053   17.5665 C.3     1  UNL1        0.0537
     22 C          62.6264   86.2989   17.4179 C.3     1  UNL1        0.0496
     23 C          63.0407   85.4768   16.2336 C.ar    1  UNL1        0.0591
     24 C          64.2144   85.8996   15.4007 C.ar    1  UNL1        0.0147
     25 C          64.6288   85.0775   14.2165 C.ar    1  UNL1        0.0027
     26 C          63.8694   83.8326   13.8650 C.ar    1  UNL1        0.0177
     27 C          64.2837   83.0105   12.6808 C.ar    1  UNL1        0.0015
     28 C          63.5243   81.7656   12.3294 C.ar    1  UNL1        0.0001
     29 C          62.3506   81.3428   13.1622 C.ar    1  UNL1        0.0015
     30 C          61.9363   82.1648   14.3465 C.ar    1  UNL1        0.0191
     31 C          62.6957   83.4097   14.6979 C.ar    1  UNL1        0.0809
     32 N          62.2814   84.2319   15.8822 N.ar    1  UNL1       -0.2497
@<TRIPOS>BOND
     1    12    13    1
     2    13    14   ar
     3    14    15   ar
     4    15    16    1
     5    15    17   ar
     6    17    11    1
     7    11     9    1
     8     9     1    1
     9     1     2   ar
    10     2     3   ar
    11     3    19    1
    12    19    20    1
    13    20    21    1
    14    21    22    1
    15    22    23    1
    16    23    24   ar
    17    24    25   ar
    18    25    26   ar
    19    26    27   ar
    20    27    28   ar
    21    28    29   ar
    22    29    30   ar
    23    30    31   ar
    24    31    32   ar
    25     3     4   ar
    26     4     5   ar
    27     5     6    1
    28     5     7   ar
    29     7     8    1
    30    17    18   ar
    31    18    13   ar
    32     7     1   ar
    33    32    23   ar
    34    31    26   ar
    35     9    10    1
@<TRIPOS>MOLECULE
*****
 32 35 0 0 0
SMALL
GASTEIGER

@<TRIPOS>ATOM
      1 C          65.1199   91.6962   12.8231 C.ar    1  UNL1        0.1316
      2 N          64.1149   91.3279   11.7722 N.ar    1  UNL1       -0.1798
      3 C          62.9163   90.5031   12.1369 C.ar    1  UNL1        0.3218
      4 N          62.7226   90.0467   13.5526 N.ar    1  UNL1       -0.1829
      5 C          63.7276   90.4150   14.6036 C.ar    1  UNL1        0.1416
      6 CL         63.5339   89.9586   16.0192 Cl      1  UNL1       -0.0614
      7 C          64.9262   91.2398   14.2388 C.ar    1  UNL1        0.0382
      8 C          65.9311   91.6082   15.2897 C.3     1  UNL1        0.0365
      9 N          66.3184   92.5210   12.4583 N.pl3   1  UNL1       -0.3141
     10 H          67.2171   92.1195   12.4790 H       1  UNL1        0.1485
     11 C          66.1478   93.9576   12.0619 C.3     1  UNL1        0.1231
     12 C          66.6247   96.8547    7.6733 C.3     1  UNL1        0.0594
     13 C          66.7532   95.7380    8.6665 C.ar    1  UNL1        0.0880
     14 N          67.5033   94.4556    8.4591 N.ar    1  UNL1       -0.2473
     15 C          67.3678   93.6326    9.7058 C.ar    1  UNL1        0.0631
     16 C          67.9619   92.2744    9.9345 C.3     1  UNL1        0.0523
     17 C          66.5340   94.4063   10.6837 C.ar    1  UNL1        0.0416
     18 S          66.1542   95.7075   10.0413 S.2     1  UNL1       -0.0738
     19 O          61.9114   90.1347   11.0860 O.3     1  UNL1       -0.4467
     20 C          60.4792   89.9022   11.4665 C.3     1  UNL1        0.2091
     21 C          59.8661   88.5452   11.2864 C.3     1  UNL1        0.0537
     22 C          60.1717   87.7412   10.0575 C.3     1  UNL1        0.0496
     23 C          61.1819   86.6340   10.1175 C.ar    1  UNL1        0.0591
     24 C          61.9033   86.2087    8.8731 C.ar    1  UNL1        0.0147
     25 C          62.9135   85.1015    8.9331 C.ar    1  UNL1        0.0027
     26 C          63.2022   84.4195   10.2376 C.ar    1  UNL1        0.0177
     27 C          64.2124   83.3123   10.2976 C.ar    1  UNL1        0.0015
     28 C          64.5011   82.6305   11.6021 C.ar    1  UNL1        0.0001
     29 C          63.7797   83.0558   12.8465 C.ar    1  UNL1        0.0015
     30 C          62.7695   84.1630   12.7865 C.ar    1  UNL1        0.0191
     31 C          62.4808   84.8448   11.4820 C.ar    1  UNL1        0.0809
     32 N          61.4706   85.9521   11.4220 N.ar    1  UNL1       -0.2497
@<TRIPOS>BOND
     1    12    13    1
     2    13    14   ar
     3    14    15   ar
     4    15    16    1
     5    15    17   ar
     6    17    11    1
     7    11     9    1
     8     9     1    1
     9     1     2   ar
    10     2     3   ar
    11     3    19    1
    12    19    20    1
    13    20    21    1
    14    21    22    1
    15    22    23    1
    16    23    24   ar
    17    24    25   ar
    18    25    26   ar
    19    26    27   ar
    20    27    28   ar
    21    28    29   ar
    22    29    30   ar
    23    30    31   ar
    24    31    32   ar
    25     3     4   ar
    26     4     5   ar
    27     5     6    1
    28     5     7   ar
    29     7     8    1
    30    17    18   ar
    31    18    13   ar
    32     7     1   ar
    33    32    23   ar
    34    31    26   ar
    35     9    10    1
@<TRIPOS>MOLECULE
*****
 32 35 0 0 0
SMALL
GASTEIGER

@<TRIPOS>ATOM
      1 C          64.3736   91.3499   12.5099 C.ar    1  UNL1        0.1316
      2 N          64.6328   90.6391   13.8051 N.ar    1  UNL1       -0.1798
      3 C          64.0075   89.3005   14.0642 C.ar    1  UNL1        0.3218
      4 N          63.1231   88.6726   13.0281 N.ar    1  UNL1       -0.1829
      5 C          62.8640   89.3834   11.7328 C.ar    1  UNL1        0.1416
      6 CL         61.9796   88.7555   10.6966 Cl      1  UNL1       -0.0614
      7 C          63.4892   90.7220   11.4737 C.ar    1  UNL1        0.0382
      8 C          63.2301   91.4327   10.1785 C.3     1  UNL1        0.0365
      9 N          64.9989   92.6884   12.2508 N.pl3   1  UNL1       -0.3141
     10 H          64.4960   93.5124   12.4442 H       1  UNL1        0.1485
     11 C          66.3905   92.7717   11.6971 C.3     1  UNL1        0.1231
     12 C          66.2372   96.8559    8.3539 C.3     1  UNL1        0.0594
     13 C          66.6137   95.5572    9.0033 C.ar    1  UNL1        0.0880
     14 N          67.6586   94.5978    8.5154 N.ar    1  UNL1       -0.2473
     15 C          67.7021   93.4376    9.4651 C.ar    1  UNL1        0.0631
     16 C          68.6050   92.2445    9.3587 C.3     1  UNL1        0.0523
     17 C          66.6842   93.6799   10.5400 C.ar    1  UNL1        0.0416
     18 S          66.0116   94.9899   10.2545 S.2     1  UNL1       -0.0738
     19 O          64.2667   88.5897   15.3595 O.3     1  UNL1       -0.4467
     20 C          63.2607   88.6634   16.4697 C.3     1  UNL1        0.2091
     21 C          62.5379   87.4252   16.9103 C.3     1  UNL1        0.0537
     22 C          63.2921   86.1416   17.0938 C.3     1  UNL1        0.0496
     23 C          63.4670   85.2026   15.9372 C.ar    1  UNL1        0.0591
     24 C          64.5752   85.4254   14.9511 C.ar    1  UNL1        0.0147
     25 C          64.7501   84.4864   13.7946 C.ar    1  UNL1        0.0027
     26 C          63.8168   83.3245   13.6241 C.ar    1  UNL1        0.0177
     27 C          63.9918   82.3855   12.4675 C.ar    1  UNL1        0.0015
     28 C          63.0586   81.2236   12.2970 C.ar    1  UNL1        0.0001
     29 C          61.9504   81.0008   13.2831 C.ar    1  UNL1        0.0015
     30 C          61.7755   81.9398   14.4396 C.ar    1  UNL1        0.0191
     31 C          62.7087   83.1016   14.6101 C.ar    1  UNL1        0.0809
     32 N          62.5338   84.0407   15.7667 N.ar    1  UNL1       -0.2497
@<TRIPOS>BOND
     1    12    13    1
     2    13    14   ar
     3    14    15   ar
     4    15    16    1
     5    15    17   ar
     6    17    11    1
     7    11     9    1
     8     9     1    1
     9     1     2   ar
    10     2     3   ar
    11     3    19    1
    12    19    20    1
    13    20    21    1
    14    21    22    1
    15    22    23    1
    16    23    24   ar
    17    24    25   ar
    18    25    26   ar
    19    26    27   ar
    20    27    28   ar
    21    28    29   ar
    22    29    30   ar
    23    30    31   ar
    24    31    32   ar
    25     3     4   ar
    26     4     5   ar
    27     5     6    1
    28     5     7   ar
    29     7     8    1
    30    17    18   ar
    31    18    13   ar
    32     7     1   ar
    33    32    23   ar
    34    31    26   ar
    35     9    10    1
@<TRIPOS>MOLECULE
*****
 32 35 0 0 0
SMALL
GASTEIGER

@<TRIPOS>ATOM
      1 C          62.1426   90.1852   12.0397 C.ar    1  UNL1        0.1316
      2 N          62.0879   89.8169   13.4927 N.ar    1  UNL1       -0.1798
      3 C          63.1463   90.3134   14.4326 C.ar    1  UNL1        0.3218
      4 N          64.2594   91.1781   13.9194 N.ar    1  UNL1       -0.1829
      5 C          64.3139   91.5465   12.4663 C.ar    1  UNL1        0.1416
      6 CL         65.4269   92.4112   11.9531 Cl      1  UNL1       -0.0614
      7 C          63.2556   91.0500   11.5265 C.ar    1  UNL1        0.0382
      8 C          63.3102   91.4183   10.0735 C.3     1  UNL1        0.0365
      9 N          61.0842   89.6887   11.0999 N.pl3   1  UNL1       -0.3141
     10 H          60.7020   90.2946   10.4245 H       1  UNL1        0.1485
     11 C          60.6080   88.2691   11.1890 C.3     1  UNL1        0.1231
     12 C          63.4464   84.2190    9.3395 C.3     1  UNL1        0.0594
     13 C          62.4833   85.3661    9.4225 C.ar    1  UNL1        0.0880
     14 N          61.6304   85.8840    8.3026 N.ar    1  UNL1       -0.2473
     15 C          60.8240   87.0345    8.8280 C.ar    1  UNL1        0.0631
     16 C          59.8365   87.8490    8.0461 C.3     1  UNL1        0.0523
     17 C          61.1787   87.2276   10.2727 C.ar    1  UNL1        0.0416
     18 S          62.2042   86.1965   10.6401 S.2     1  UNL1       -0.0738
     19 O          63.0917   89.9451   15.8856 O.3     1  UNL1       -0.4467
     20 C          63.5792   88.6003   16.3374 C.3     1  UNL1        0.2091
     21 C          62.6585   87.6805   17.0832 C.3     1  UNL1        0.0537
     22 C          63.0461   86.2484   17.3039 C.3     1  UNL1        0.0496
     23 C          63.3359   85.3604   16.1302 C.ar    1  UNL1        0.0591
     24 C          64.5272   85.6321   15.2602 C.ar    1  UNL1        0.0147
     25 C          64.8170   84.7442   14.0866 C.ar    1  UNL1        0.0027
     26 C          63.9154   83.5845   13.7827 C.ar    1  UNL1        0.0177
     27 C          64.2052   82.6966   12.6090 C.ar    1  UNL1        0.0015
     28 C          63.3036   81.5370   12.3053 C.ar    1  UNL1        0.0001
     29 C          62.1122   81.2653   13.1752 C.ar    1  UNL1        0.0015
     30 C          61.8224   82.1532   14.3489 C.ar    1  UNL1        0.0191
     31 C          62.7240   83.3128   14.6527 C.ar    1  UNL1        0.0809
     32 N          62.4343   84.2008   15.8264 N.ar    1  UNL1       -0.2497
@<TRIPOS>BOND
     1    12    13    1
     2    13    14   ar
     3    14    15   ar
     4    15    16    1
     5    15    17   ar
     6    17    11    1
     7    11     9    1
     8     9     1    1
     9     1     2   ar
    10     2     3   ar
    11     3    19    1
    12    19    20    1
    13    20    21    1
    14    21    22    1
    15    22    23    1
    16    23    24   ar
    17    24    25   ar
    18    25    26   ar
    19    26    27   ar
    20    27    28   ar
    21    28    29   ar
    22    29    30   ar
    23    30    31   ar
    24    31    32   ar
    25     3     4   ar
    26     4     5   ar
    27     5     6    1
    28     5     7   ar
    29     7     8    1
    30    17    18   ar
    31    18    13   ar
    32     7     1   ar
    33    32    23   ar
    34    31    26   ar
    35     9    10    1
@<TRIPOS>MOLECULE
*****
 32 35 0 0 0
SMALL
GASTEIGER

@<TRIPOS>ATOM
      1 C          62.0391   85.7422   10.2277 C.ar    1  UNL1        0.1316
      2 N          61.4303   86.6164   11.2836 N.ar    1  UNL1       -0.1798
      3 C          60.3087   87.5480   10.9311 C.ar    1  UNL1        0.3218
      4 N          59.7959   87.6053    9.5227 N.ar    1  UNL1       -0.1829
      5 C          60.4048   86.7310    8.4667 C.ar    1  UNL1        0.1416
      6 CL         59.8920   86.7883    7.0582 Cl      1  UNL1       -0.0614
      7 C          61.5263   85.7995    8.8192 C.ar    1  UNL1        0.0382
      8 C          62.1351   84.9253    7.7633 C.3     1  UNL1        0.0365
      9 N          63.1607   84.8107   10.5802 N.pl3   1  UNL1       -0.3141
     10 H          64.0680   84.9811   10.2382 H       1  UNL1        0.1485
     11 C          62.8999   83.6195   11.4538 C.3     1  UNL1        0.1231
     12 C          63.8518   85.5407   16.2791 C.3     1  UNL1        0.0594
     13 C          63.4272   84.6324   15.1634 C.ar    1  UNL1        0.0880
     14 N          62.8284   83.2658   15.3184 N.ar    1  UNL1       -0.2473
     15 C          62.5580   82.7201   13.9476 C.ar    1  UNL1        0.0631
     16 C          61.9608   81.3803   13.6341 C.3     1  UNL1        0.0523
     17 C          62.9896   83.7493   12.9454 C.ar    1  UNL1        0.0416
     18 S          63.5268   84.9312   13.6968 S.2     1  UNL1       -0.0738
     19 O          59.6999   88.4222   11.9871 O.3     1  UNL1       -0.4467
     20 C          59.9789   89.8960   11.9931 C.3     1  UNL1        0.2091
     21 C          60.7586   90.5164   10.8719 C.3     1  UNL1        0.0537
     22 C          62.2009   90.1561   10.6722 C.3     1  UNL1        0.0496
     23 C          63.2022   90.4438   11.7515 C.ar    1  UNL1        0.0591
     24 C          63.3698   89.4860   12.8937 C.ar    1  UNL1        0.0147
     25 C          64.3710   89.7737   13.9729 C.ar    1  UNL1        0.0027
     26 C          65.2047   91.0192   13.9100 C.ar    1  UNL1        0.0177
     27 C          66.2059   91.3068   14.9893 C.ar    1  UNL1        0.0015
     28 C          67.0395   92.5522   14.9263 C.ar    1  UNL1        0.0001
     29 C          66.8718   93.5100   13.7841 C.ar    1  UNL1        0.0015
     30 C          65.8706   93.2223   12.7049 C.ar    1  UNL1        0.0191
     31 C          65.0371   91.9769   12.7678 C.ar    1  UNL1        0.0809
     32 N          64.0358   91.6892   11.6886 N.ar    1  UNL1       -0.2497
@<TRIPOS>BOND
     1    12    13    1
     2    13    14   ar
     3    14    15   ar
     4    15    16    1
     5    15    17   ar
     6    17    11    1
     7    11     9    1
     8     9     1    1
     9     1     2   ar
    10     2     3   ar
    11     3    19    1
    12    19    20    1
    13    20    21    1
    14    21    22    1
    15    22    23    1
    16    23    24   ar
    17    24    25   ar
    18    25    26   ar
    19    26    27   ar
    20    27    28   ar
    21    28    29   ar
    22    29    30   ar
    23    30    31   ar
    24    31    32   ar
    25     3     4   ar
    26     4     5   ar
    27     5     6    1
    28     5     7   ar
    29     7     8    1
    30    17    18   ar
    31    18    13   ar
    32     7     1   ar
    33    32    23   ar
    34    31    26   ar
    35     9    10    1
@<TRIPOS>MOLECULE
*****
 32 35 0 0 0
SMALL
GASTEIGER

@<TRIPOS>ATOM
      1 C          61.6632   88.4284   11.3954 C.ar    1  UNL1        0.1316
      2 N          62.1680   87.0276   11.5759 N.ar    1  UNL1       -0.1798
      3 C          61.7612   85.9535   10.6110 C.ar    1  UNL1        0.3218
      4 N          60.8496   86.2804    9.4656 N.ar    1  UNL1       -0.1829
      5 C          60.3448   87.6814    9.2850 C.ar    1  UNL1        0.1416
      6 CL         59.4331   88.0083    8.1396 Cl      1  UNL1       -0.0614
      7 C          60.7515   88.7554   10.2499 C.ar    1  UNL1        0.0382
      8 C          60.2467   90.1562   10.0694 C.3     1  UNL1        0.0365
      9 N          62.0699   89.5024   12.3603 N.pl3   1  UNL1       -0.3141
     10 H          61.4680   90.2618   12.5340 H       1  UNL1        0.1485
     11 C          63.3939   89.4194   13.0605 C.3     1  UNL1        0.1231
     12 C          66.6609   93.0823   15.0074 C.3     1  UNL1        0.0594
     13 C          65.7554   92.3256   14.0813 C.ar    1  UNL1        0.0880
     14 N          65.3985   92.7211   12.6791 N.ar    1  UNL1       -0.2473
     15 C          64.4704   91.6805   12.1261 C.ar    1  UNL1        0.0631
     16 C          63.8652   91.6789   10.7536 C.3     1  UNL1        0.0523
     17 C          64.2538   90.6420   13.1864 C.ar    1  UNL1        0.0416
     18 S          65.0479   91.0406   14.3949 S.2     1  UNL1       -0.0738
     19 O          62.2661   84.5527   10.7916 O.3     1  UNL1       -0.4467
     20 C          63.4673   84.0837   10.0253 C.3     1  UNL1        0.2091
     21 C          64.0025   82.6995   10.2431 C.3     1  UNL1        0.0537
     22 C          64.4809   82.2857   11.6033 C.3     1  UNL1        0.0496
     23 C          63.9452   82.9689   12.8266 C.ar    1  UNL1        0.0591
     24 C          62.8847   82.3039   13.6532 C.ar    1  UNL1        0.0147
     25 C          62.3490   82.9870   14.8764 C.ar    1  UNL1        0.0027
     26 C          62.8739   84.3350   15.2733 C.ar    1  UNL1        0.0177
     27 C          62.3382   85.0181   16.4965 C.ar    1  UNL1        0.0015
     28 C          62.8631   86.3660   16.8933 C.ar    1  UNL1        0.0001
     29 C          63.9236   87.0310   16.0667 C.ar    1  UNL1        0.0015
     30 C          64.4593   86.3479   14.8435 C.ar    1  UNL1        0.0191
     31 C          63.9344   84.9999   14.4467 C.ar    1  UNL1        0.0809
     32 N          64.4701   84.3168   13.2234 N.ar    1  UNL1       -0.2497
@<TRIPOS>BOND
     1    12    13    1
     2    13    14   ar
     3    14    15   ar
     4    15    16    1
     5    15    17   ar
     6    17    11    1
     7    11     9    1
     8     9     1    1
     9     1     2   ar
    10     2     3   ar
    11     3    19    1
    12    19    20    1
    13    20    21    1
    14    21    22    1
    15    22    23    1
    16    23    24   ar
    17    24    25   ar
    18    25    26   ar
    19    26    27   ar
    20    27    28   ar
    21    28    29   ar
    22    29    30   ar
    23    30    31   ar
    24    31    32   ar
    25     3     4   ar
    26     4     5   ar
    27     5     6    1
    28     5     7   ar
    29     7     8    1
    30    17    18   ar
    31    18    13   ar
    32     7     1   ar
    33    32    23   ar
    34    31    26   ar
    35     9    10    1
@<TRIPOS>MOLECULE
*****
 32 35 0 0 0
SMALL
GASTEIGER

@<TRIPOS>ATOM
      1 C          63.7560   90.9696   12.1404 C.ar    1  UNL1        0.1316
      2 N          64.2198   90.3085   13.4044 N.ar    1  UNL1       -0.1798
      3 C          63.9455   88.8515   13.6331 C.ar    1  UNL1        0.3218
      4 N          63.2074   88.0558   12.5977 N.ar    1  UNL1       -0.1829
      5 C          62.7436   88.7170   11.3336 C.ar    1  UNL1        0.1416
      6 CL         62.0055   87.9213   10.2983 Cl      1  UNL1       -0.0614
      7 C          63.0178   90.1739   11.1050 C.ar    1  UNL1        0.0382
      8 C          62.5540   90.8350    9.8410 C.3     1  UNL1        0.0365
      9 N          64.0302   92.4264   11.9118 N.pl3   1  UNL1       -0.3141
     10 H          63.3394   92.9999   11.5079 H       1  UNL1        0.1485
     11 C          65.3571   93.0096   12.2985 C.3     1  UNL1        0.1231
     12 C          69.0393   92.3912    8.5649 C.3     1  UNL1        0.0594
     13 C          68.0758   93.0185    9.5284 C.ar    1  UNL1        0.0880
     14 N          67.8492   94.4893    9.7168 N.ar    1  UNL1       -0.2473
     15 C          66.8032   94.6649   10.7774 C.ar    1  UNL1        0.0631
     16 C          66.2705   95.9731   11.2823 C.3     1  UNL1        0.0523
     17 C          66.3833   93.3027   11.2445 C.ar    1  UNL1        0.0416
     18 S          67.1699   92.2852   10.4726 S.2     1  UNL1       -0.0738
     19 O          64.4094   88.1904   14.8971 O.3     1  UNL1       -0.4467
     20 C          63.4372   87.9359   16.0107 C.3     1  UNL1        0.2091
     21 C          63.3337   86.5682   16.6178 C.3     1  UNL1        0.0537
     22 C          64.2585   85.4761   16.1684 C.3     1  UNL1        0.0496
     23 C          63.8092   84.4938   15.1276 C.ar    1  UNL1        0.0591
     24 C          62.6839   83.5477   15.4254 C.ar    1  UNL1        0.0147
     25 C          62.2346   82.5654   14.3846 C.ar    1  UNL1        0.0027
     26 C          62.9105   82.5292   13.0460 C.ar    1  UNL1        0.0177
     27 C          62.4611   81.5470   12.0052 C.ar    1  UNL1        0.0015
     28 C          63.1370   81.5108   10.6666 C.ar    1  UNL1        0.0001
     29 C          64.2623   82.4569   10.3688 C.ar    1  UNL1        0.0015
     30 C          64.7116   83.4392   11.4096 C.ar    1  UNL1        0.0191
     31 C          64.0357   83.4753   12.7482 C.ar    1  UNL1        0.0809
     32 N          64.4851   84.4576   13.7890 N.ar    1  UNL1       -0.2497
@<TRIPOS>BOND
     1    12    13    1
     2    13    14   ar
     3    14    15   ar
     4    15    16    1
     5    15    17   ar
     6    17    11    1
     7    11     9    1
     8     9     1    1
     9     1     2   ar
    10     2     3   ar
    11     3    19    1
    12    19    20    1
    13    20    21    1
    14    21    22    1
    15    22    23    1
    16    23    24   ar
    17    24    25   ar
    18    25    26   ar
    19    26    27   ar
    20    27    28   ar
    21    28    29   ar
    22    29    30   ar
    23    30    31   ar
    24    31    32   ar
    25     3     4   ar
    26     4     5   ar
    27     5     6    1
    28     5     7   ar
    29     7     8    1
    30    17    18   ar
    31    18    13   ar
    32     7     1   ar
    33    32    23   ar
    34    31    26   ar
    35     9    10    1
