@<TRIPOS>MOLECULE
*****
 28 31 0 0 0
SMALL
GASTEIGER

@<TRIPOS>ATOM
      1 N          64.0507   90.1437   13.5563 N.pl3   1  UNL1       -0.2860
      2 C          63.2962   89.9519   12.2741 C.ar    1  UNL1        0.0576
      3 C          62.3563   88.7927   12.1232 C.ar    1  UNL1        0.0153
      4 C          61.6018   88.6009   10.8410 C.ar    1  UNL1        0.0013
      5 C          61.7872   89.5684    9.7098 C.ar    1  UNL1        0.0006
      6 C          62.7270   90.7277    9.8608 C.ar    1  UNL1        0.0077
      7 C          63.4815   90.9194   11.1429 C.ar    1  UNL1        0.0431
      8 S          64.4214   92.0787   11.2939 S.3     1  UNL1       -0.0844
      9 C          65.1759   92.2704   12.5760 C.ar    1  UNL1        0.0431
     10 C          66.1158   93.4297   12.7270 C.ar    1  UNL1        0.0086
     11 C          66.8703   93.6215   14.0092 C.ar    1  UNL1        0.0120
     12 C          66.6849   92.6540   15.1404 C.ar    1  UNL1        0.0589
     13 CL         67.4394   92.8457   16.4225 Cl      1  UNL1       -0.0822
     14 C          65.7451   91.4947   14.9894 C.ar    1  UNL1        0.0267
     15 C          64.9905   91.3029   13.7072 C.ar    1  UNL1        0.0585
     16 C          63.8654   89.1762   14.6875 C.3     1  UNL1        0.0970
     17 C          64.5036   87.8201   14.6267 C.3     1  UNL1        0.0391
     18 C          63.9641   86.6991   15.4647 C.3     1  UNL1        0.0739
     19 N          62.6369   82.8679   13.5126 N.3     1  UNL1       -0.2682
     20 C          63.2345   83.9649   12.6823 C.3     1  UNL1        0.0897
     21 C          63.6769   85.2419   13.3330 C.3     1  UNL1        0.0897
     22 N          63.5217   85.4220   14.8140 N.3     1  UNL1       -0.2703
     23 C          62.9240   84.3250   15.6443 C.3     1  UNL1        0.0897
     24 C          62.4816   83.0480   14.9936 C.3     1  UNL1        0.0897
     25 C          62.1944   81.5909   12.8619 C.3     1  UNL1        0.1043
     26 O          60.2494   80.7143   14.3445 O.3     1  UNL1       -0.3805
     27 C          61.5818   80.5003   13.6897 C.3     1  UNL1        0.1544
     28 H          59.9999   79.9173   14.8379 H       1  UNL1        0.2105
@<TRIPOS>BOND
     1    26    27    1
     2    27    25    1
     3    25    19    1
     4    19    20    1
     5    20    21    1
     6    21    22    1
     7    22    18    1
     8    18    17    1
     9    17    16    1
    10    16     1    1
    11     1     2    1
    12     2     3   ar
    13     3     4   ar
    14     4     5   ar
    15     5     6   ar
    16     6     7   ar
    17     7     8    1
    18     8     9    1
    19     9    10   ar
    20    10    11   ar
    21    11    12   ar
    22    12    13    1
    23    12    14   ar
    24    14    15   ar
    25    22    23    1
    26    23    24    1
    27    24    19    1
    28    15     1    1
    29     7     2   ar
    30    15     9   ar
    31    26    28    1
@<TRIPOS>MOLECULE
*****
 28 31 0 0 0
SMALL
GASTEIGER

@<TRIPOS>ATOM
      1 N          64.1532   90.3414   13.7530 N.pl3   1  UNL1       -0.2860
      2 C          65.1334   91.4510   13.9941 C.ar    1  UNL1        0.0576
      3 C          65.8129   91.5753   15.3256 C.ar    1  UNL1        0.0153
      4 C          66.7930   92.6848   15.5667 C.ar    1  UNL1        0.0013
      5 C          67.0938   93.6700   14.4763 C.ar    1  UNL1        0.0006
      6 C          66.4143   93.5457   13.1449 C.ar    1  UNL1        0.0077
      7 C          65.4342   92.4362   12.9038 C.ar    1  UNL1        0.0431
      8 S          64.7547   92.3118   11.5722 S.3     1  UNL1       -0.0844
      9 C          63.7745   91.2023   11.3311 C.ar    1  UNL1        0.0431
     10 C          63.0950   91.0779    9.9996 C.ar    1  UNL1        0.0086
     11 C          62.1149   89.9684    9.7585 C.ar    1  UNL1        0.0120
     12 C          61.8141   88.9832   10.8489 C.ar    1  UNL1        0.0589
     13 CL         60.8340   87.8737   10.6078 Cl      1  UNL1       -0.0822
     14 C          62.4936   89.1075   12.1803 C.ar    1  UNL1        0.0267
     15 C          63.4738   90.2171   12.4215 C.ar    1  UNL1        0.0585
     16 C          63.8525   89.3562   14.8434 C.3     1  UNL1        0.0970
     17 C          64.4798   87.9939   14.8173 C.3     1  UNL1        0.0391
     18 C          63.8650   86.8701   15.5977 C.3     1  UNL1        0.0739
     19 N          62.6716   83.0681   13.5071 N.3     1  UNL1       -0.2682
     20 C          63.3312   84.1728   12.7360 C.3     1  UNL1        0.0897
     21 C          63.7290   85.4401   13.4328 C.3     1  UNL1        0.0897
     22 N          63.4672   85.6027   14.9008 N.3     1  UNL1       -0.2703
     23 C          62.8076   84.4981   15.6719 C.3     1  UNL1        0.0897
     24 C          62.4098   83.2308   14.9751 C.3     1  UNL1        0.0897
     25 C          62.2737   81.8007   12.8102 C.3     1  UNL1        0.1043
     26 O          63.3835   80.0329   14.3570 O.3     1  UNL1       -0.3805
     27 C          62.1954   80.5150   13.5788 C.3     1  UNL1        0.1544
     28 H          63.1663   79.1935   14.7919 H       1  UNL1        0.2105
@<TRIPOS>BOND
     1    26    27    1
     2    27    25    1
     3    25    19    1
     4    19    20    1
     5    20    21    1
     6    21    22    1
     7    22    18    1
     8    18    17    1
     9    17    16    1
    10    16     1    1
    11     1     2    1
    12     2     3   ar
    13     3     4   ar
    14     4     5   ar
    15     5     6   ar
    16     6     7   ar
    17     7     8    1
    18     8     9    1
    19     9    10   ar
    20    10    11   ar
    21    11    12   ar
    22    12    13    1
    23    12    14   ar
    24    14    15   ar
    25    22    23    1
    26    23    24    1
    27    24    19    1
    28    15     1    1
    29     7     2   ar
    30    15     9   ar
    31    26    28    1
@<TRIPOS>MOLECULE
*****
 28 31 0 0 0
SMALL
GASTEIGER

@<TRIPOS>ATOM
      1 N          62.0564   88.5792   10.8931 N.pl3   1  UNL1       -0.2860
      2 C          62.6579   87.5793   11.8357 C.ar    1  UNL1        0.0576
      3 C          63.5286   88.0431   12.9656 C.ar    1  UNL1        0.0153
      4 C          64.1300   87.0431   13.9082 C.ar    1  UNL1        0.0013
      5 C          63.8607   85.5795   13.7208 C.ar    1  UNL1        0.0006
      6 C          62.9900   85.1157   12.5910 C.ar    1  UNL1        0.0077
      7 C          62.3886   86.1156   11.6484 C.ar    1  UNL1        0.0431
      8 S          61.5178   85.6519   10.5184 S.3     1  UNL1       -0.0844
      9 C          60.9164   86.6518    9.5759 C.ar    1  UNL1        0.0431
     10 C          60.0456   86.1880    8.4459 C.ar    1  UNL1        0.0086
     11 C          59.4442   87.1879    7.5034 C.ar    1  UNL1        0.0120
     12 C          59.7135   88.6516    7.6907 C.ar    1  UNL1        0.0589
     13 CL         59.1121   89.6515    6.7482 Cl      1  UNL1       -0.0822
     14 C          60.5842   89.1154    8.8206 C.ar    1  UNL1        0.0267
     15 C          61.1857   88.1154    9.7632 C.ar    1  UNL1        0.0585
     16 C          62.3258   90.0429   11.0804 C.3     1  UNL1        0.0970
     17 C          63.5595   90.6599   10.4911 C.3     1  UNL1        0.0391
     18 C          63.9636   92.0500   10.8838 C.3     1  UNL1        0.0739
     19 N          66.4250   92.7147   14.5918 N.3     1  UNL1       -0.2682
     20 C          66.5754   93.6350   13.4169 C.3     1  UNL1        0.0897
     21 C          65.7550   93.4134   12.1809 C.3     1  UNL1        0.0897
     22 N          64.7841   92.2716   12.1198 N.3     1  UNL1       -0.2703
     23 C          64.6337   91.3514   13.2948 C.3     1  UNL1        0.0897
     24 C          65.4541   91.5730   14.5308 C.3     1  UNL1        0.0897
     25 C          67.2455   92.9363   15.8279 C.3     1  UNL1        0.1043
     26 O          69.4533   92.3457   14.5924 O.3     1  UNL1       -0.3805
     27 C          68.6771   92.4904   15.8677 C.3     1  UNL1        0.1544
     28 H          70.3552   92.0515   14.7944 H       1  UNL1        0.2105
@<TRIPOS>BOND
     1    26    27    1
     2    27    25    1
     3    25    19    1
     4    19    20    1
     5    20    21    1
     6    21    22    1
     7    22    18    1
     8    18    17    1
     9    17    16    1
    10    16     1    1
    11     1     2    1
    12     2     3   ar
    13     3     4   ar
    14     4     5   ar
    15     5     6   ar
    16     6     7   ar
    17     7     8    1
    18     8     9    1
    19     9    10   ar
    20    10    11   ar
    21    11    12   ar
    22    12    13    1
    23    12    14   ar
    24    14    15   ar
    25    22    23    1
    26    23    24    1
    27    24    19    1
    28    15     1    1
    29     7     2   ar
    30    15     9   ar
    31    26    28    1
@<TRIPOS>MOLECULE
*****
 28 31 0 0 0
SMALL
GASTEIGER

@<TRIPOS>ATOM
      1 N          61.9593   88.4948   10.8566 N.pl3   1  UNL1       -0.2860
      2 C          61.0795   88.1455    9.6930 C.ar    1  UNL1        0.0576
      3 C          60.5127   89.2324    8.8285 C.ar    1  UNL1        0.0153
      4 C          59.6329   88.8830    7.6649 C.ar    1  UNL1        0.0013
      5 C          59.3199   87.4468    7.3660 C.ar    1  UNL1        0.0006
      6 C          59.8866   86.3600    8.2305 C.ar    1  UNL1        0.0077
      7 C          60.7664   86.7093    9.3941 C.ar    1  UNL1        0.0431
      8 S          61.3332   85.6225   10.2587 S.3     1  UNL1       -0.0844
      9 C          62.2131   85.9718   11.4222 C.ar    1  UNL1        0.0431
     10 C          62.7799   84.8849   12.2869 C.ar    1  UNL1        0.0086
     11 C          63.6597   85.2343   13.4504 C.ar    1  UNL1        0.0120
     12 C          63.9727   86.6705   13.7493 C.ar    1  UNL1        0.0589
     13 CL         64.8526   87.0198   14.9129 Cl      1  UNL1       -0.0822
     14 C          63.4060   87.7573   12.8848 C.ar    1  UNL1        0.0267
     15 C          62.5261   87.4080   11.7212 C.ar    1  UNL1        0.0585
     16 C          62.2724   89.9310   11.1556 C.3     1  UNL1        0.0970
     17 C          63.4930   90.5714   10.5641 C.3     1  UNL1        0.0391
     18 C          63.8860   91.9593   10.9756 C.3     1  UNL1        0.0739
     19 N          66.4592   92.5835   14.6141 N.3     1  UNL1       -0.2682
     20 C          65.4964   91.4343   14.5646 C.3     1  UNL1        0.0897
     21 C          64.6386   91.2263   13.3518 C.3     1  UNL1        0.0897
     22 N          64.7438   92.1673   12.1885 N.3     1  UNL1       -0.2703
     23 C          65.7066   93.3164   12.2380 C.3     1  UNL1        0.0897
     24 C          66.5644   93.5245   13.4508 C.3     1  UNL1        0.0897
     25 C          67.3170   92.7915   15.8270 C.3     1  UNL1        0.1043
     26 O          69.4799   92.3359   14.4617 O.3     1  UNL1       -0.3805
     27 C          68.8072   92.8856   15.6846 C.3     1  UNL1        0.1544
     28 H          70.4372   92.4772   14.5283 H       1  UNL1        0.2105
@<TRIPOS>BOND
     1    26    27    1
     2    27    25    1
     3    25    19    1
     4    19    20    1
     5    20    21    1
     6    21    22    1
     7    22    18    1
     8    18    17    1
     9    17    16    1
    10    16     1    1
    11     1     2    1
    12     2     3   ar
    13     3     4   ar
    14     4     5   ar
    15     5     6   ar
    16     6     7   ar
    17     7     8    1
    18     8     9    1
    19     9    10   ar
    20    10    11   ar
    21    11    12   ar
    22    12    13    1
    23    12    14   ar
    24    14    15   ar
    25    22    23    1
    26    23    24    1
    27    24    19    1
    28    15     1    1
    29     7     2   ar
    30    15     9   ar
    31    26    28    1
@<TRIPOS>MOLECULE
*****
 28 31 0 0 0
SMALL
GASTEIGER

@<TRIPOS>ATOM
      1 N          61.5312   87.2928   10.6897 N.pl3   1  UNL1       -0.2860
      2 C          60.6981   87.5647    9.4722 C.ar    1  UNL1        0.0576
      3 C          59.9587   86.4439    8.8038 C.ar    1  UNL1        0.0153
      4 C          59.1257   86.7158    7.5864 C.ar    1  UNL1        0.0013
      5 C          59.0322   88.1086    7.0374 C.ar    1  UNL1        0.0006
      6 C          59.7717   89.2294    7.7058 C.ar    1  UNL1        0.0077
      7 C          60.6046   88.9575    8.9232 C.ar    1  UNL1        0.0431
      8 S          61.3442   90.0784    9.5917 S.3     1  UNL1       -0.0844
      9 C          62.1771   89.8064   10.8091 C.ar    1  UNL1        0.0431
     10 C          62.9167   90.9273   11.4776 C.ar    1  UNL1        0.0086
     11 C          63.7496   90.6554   12.6950 C.ar    1  UNL1        0.0120
     12 C          63.8431   89.2626   13.2440 C.ar    1  UNL1        0.0589
     13 CL         64.6761   88.9907   14.4615 Cl      1  UNL1       -0.0822
     14 C          63.1037   88.1417   12.5756 C.ar    1  UNL1        0.0267
     15 C          62.2706   88.4137   11.3581 C.ar    1  UNL1        0.0585
     16 C          61.6247   85.9000   11.2387 C.3     1  UNL1        0.0970
     17 C          62.7535   85.0041   10.8228 C.3     1  UNL1        0.0391
     18 C          63.4797   84.1867   11.8497 C.3     1  UNL1        0.0739
     19 N          63.2100   85.2888   16.2043 N.3     1  UNL1       -0.2682
     20 C          62.1148   84.4885   15.5640 C.3     1  UNL1        0.0897
     21 C          62.2046   84.1211   14.1125 C.3     1  UNL1        0.0897
     22 N          63.3897   84.5541   13.3013 N.3     1  UNL1       -0.2703
     23 C          64.4850   85.3544   13.9416 C.3     1  UNL1        0.0897
     24 C          64.3951   85.7217   15.3931 C.3     1  UNL1        0.0897
     25 C          63.1201   85.6562   17.6559 C.3     1  UNL1        0.1043
     26 O          62.6582   88.1384   17.0438 O.3     1  UNL1       -0.3805
     27 C          62.6723   87.0309   18.0553 C.3     1  UNL1        0.1544
     28 H          62.3449   88.9552   17.4629 H       1  UNL1        0.2105
@<TRIPOS>BOND
     1    26    27    1
     2    27    25    1
     3    25    19    1
     4    19    20    1
     5    20    21    1
     6    21    22    1
     7    22    18    1
     8    18    17    1
     9    17    16    1
    10    16     1    1
    11     1     2    1
    12     2     3   ar
    13     3     4   ar
    14     4     5   ar
    15     5     6   ar
    16     6     7   ar
    17     7     8    1
    18     8     9    1
    19     9    10   ar
    20    10    11   ar
    21    11    12   ar
    22    12    13    1
    23    12    14   ar
    24    14    15   ar
    25    22    23    1
    26    23    24    1
    27    24    19    1
    28    15     1    1
    29     7     2   ar
    30    15     9   ar
    31    26    28    1
@<TRIPOS>MOLECULE
*****
 28 31 0 0 0
SMALL
GASTEIGER

@<TRIPOS>ATOM
      1 N          62.2095   88.1001   11.4833 N.pl3   1  UNL1       -0.2860
      2 C          61.3904   88.0311   10.2284 C.ar    1  UNL1        0.0576
      3 C          60.8123   89.2840    9.6404 C.ar    1  UNL1        0.0153
      4 C          59.9934   89.2150    8.3856 C.ar    1  UNL1        0.0013
      5 C          59.7525   87.8931    7.7189 C.ar    1  UNL1        0.0006
      6 C          60.3307   86.6402    8.3070 C.ar    1  UNL1        0.0077
      7 C          61.1496   86.7092    9.5617 C.ar    1  UNL1        0.0431
      8 S          61.7278   85.4562   10.1499 S.3     1  UNL1       -0.0844
      9 C          62.5467   85.5252   11.4046 C.ar    1  UNL1        0.0431
     10 C          63.1249   84.2722   11.9928 C.ar    1  UNL1        0.0086
     11 C          63.9439   84.3412   13.2475 C.ar    1  UNL1        0.0120
     12 C          64.1847   85.6631   13.9143 C.ar    1  UNL1        0.0589
     13 CL         65.0037   85.7321   15.1690 Cl      1  UNL1       -0.0822
     14 C          63.6066   86.9161   13.3262 C.ar    1  UNL1        0.0267
     15 C          62.7876   86.8471   12.0713 C.ar    1  UNL1        0.0585
     16 C          62.4503   89.4220   12.1500 C.3     1  UNL1        0.0970
     17 C          63.5405   89.5595   13.1710 C.3     1  UNL1        0.0391
     18 C          63.9239   90.9171   13.6806 C.3     1  UNL1        0.0739
     19 N          66.2699   93.7240   11.0600 N.3     1  UNL1       -0.2682
     20 C          66.5335   93.6794   12.5359 C.3     1  UNL1        0.0897
     21 C          65.7515   92.7438   13.4095 C.3     1  UNL1        0.0897
     22 N          64.7060   91.8528   12.8070 N.3     1  UNL1       -0.2703
     23 C          64.4424   91.8974   11.3311 C.3     1  UNL1        0.0897
     24 C          65.2244   92.8330   10.4575 C.3     1  UNL1        0.0897
     25 C          67.0520   94.6597   10.1864 C.3     1  UNL1        0.1043
     26 O          69.2637   93.3642    9.7626 O.3     1  UNL1       -0.3805
     27 C          68.0781   94.1173    9.2362 C.3     1  UNL1        0.1544
     28 H          69.8244   93.0851    9.0219 H       1  UNL1        0.2105
@<TRIPOS>BOND
     1    26    27    1
     2    27    25    1
     3    25    19    1
     4    19    20    1
     5    20    21    1
     6    21    22    1
     7    22    18    1
     8    18    17    1
     9    17    16    1
    10    16     1    1
    11     1     2    1
    12     2     3   ar
    13     3     4   ar
    14     4     5   ar
    15     5     6   ar
    16     6     7   ar
    17     7     8    1
    18     8     9    1
    19     9    10   ar
    20    10    11   ar
    21    11    12   ar
    22    12    13    1
    23    12    14   ar
    24    14    15   ar
    25    22    23    1
    26    23    24    1
    27    24    19    1
    28    15     1    1
    29     7     2   ar
    30    15     9   ar
    31    26    28    1
@<TRIPOS>MOLECULE
*****
 28 31 0 0 0
SMALL
GASTEIGER

@<TRIPOS>ATOM
      1 N          63.6383   87.1551   13.2389 N.pl3   1  UNL1       -0.2860
      2 C          63.6679   85.7173   13.6657 C.ar    1  UNL1        0.0576
      3 C          64.4115   85.3183   14.9057 C.ar    1  UNL1        0.0153
      4 C          64.4411   83.8806   15.3325 C.ar    1  UNL1        0.0013
      5 C          63.7271   82.8420   14.5193 C.ar    1  UNL1        0.0006
      6 C          62.9834   83.2410   13.2792 C.ar    1  UNL1        0.0077
      7 C          62.9538   84.6787   12.8525 C.ar    1  UNL1        0.0431
      8 S          62.2101   85.0778   11.6124 S.3     1  UNL1       -0.0844
      9 C          62.1805   86.5155   11.1856 C.ar    1  UNL1        0.0431
     10 C          61.4369   86.9146    9.9455 C.ar    1  UNL1        0.0086
     11 C          61.4073   88.3523    9.5188 C.ar    1  UNL1        0.0120
     12 C          62.1213   89.3909   10.3320 C.ar    1  UNL1        0.0589
     13 CL         62.0917   90.8286    9.9052 Cl      1  UNL1       -0.0822
     14 C          62.8650   88.9918   11.5720 C.ar    1  UNL1        0.0267
     15 C          62.8946   87.5541   11.9989 C.ar    1  UNL1        0.0585
     16 C          64.3523   88.1937   14.0521 C.3     1  UNL1        0.0970
     17 C          63.5745   89.1047   14.9549 C.3     1  UNL1        0.0391
     18 C          64.0485   90.5077   15.1936 C.3     1  UNL1        0.0739
     19 N          66.2130   92.7360   11.9379 N.3     1  UNL1       -0.2682
     20 C          64.8168   92.2390   11.7062 C.3     1  UNL1        0.0897
     21 C          64.0953   91.4963   12.7914 C.3     1  UNL1        0.0897
     22 N          64.7700   91.2505   14.1083 N.3     1  UNL1       -0.2703
     23 C          66.1662   91.7474   14.3400 C.3     1  UNL1        0.0897
     24 C          66.8877   92.4902   13.2548 C.3     1  UNL1        0.0897
     25 C          66.9345   93.4788   10.8526 C.3     1  UNL1        0.1043
     26 O          65.6121   95.6415   11.4213 O.3     1  UNL1       -0.3805
     27 C          66.7256   94.9549   10.6874 C.3     1  UNL1        0.1544
     28 H          65.6170   96.5871   11.2049 H       1  UNL1        0.2105
@<TRIPOS>BOND
     1    26    27    1
     2    27    25    1
     3    25    19    1
     4    19    20    1
     5    20    21    1
     6    21    22    1
     7    22    18    1
     8    18    17    1
     9    17    16    1
    10    16     1    1
    11     1     2    1
    12     2     3   ar
    13     3     4   ar
    14     4     5   ar
    15     5     6   ar
    16     6     7   ar
    17     7     8    1
    18     8     9    1
    19     9    10   ar
    20    10    11   ar
    21    11    12   ar
    22    12    13    1
    23    12    14   ar
    24    14    15   ar
    25    22    23    1
    26    23    24    1
    27    24    19    1
    28    15     1    1
    29     7     2   ar
    30    15     9   ar
    31    26    28    1
@<TRIPOS>MOLECULE
*****
 28 31 0 0 0
SMALL
GASTEIGER

@<TRIPOS>ATOM
      1 N          63.5419   84.0793   12.2665 N.pl3   1  UNL1       -0.2860
      2 C          63.6265   84.9501   13.4849 C.ar    1  UNL1        0.0576
      3 C          63.9601   86.4058   13.3448 C.ar    1  UNL1        0.0153
      4 C          64.0447   87.2765   14.5632 C.ar    1  UNL1        0.0013
      5 C          63.7957   86.6915   15.9218 C.ar    1  UNL1        0.0006
      6 C          63.4621   85.2359   16.0620 C.ar    1  UNL1        0.0077
      7 C          63.3775   84.3651   14.8436 C.ar    1  UNL1        0.0431
      8 S          63.0439   82.9094   14.9837 S.3     1  UNL1       -0.0844
      9 C          62.9593   82.0387   13.7653 C.ar    1  UNL1        0.0431
     10 C          62.6257   80.5829   13.9054 C.ar    1  UNL1        0.0086
     11 C          62.5411   79.7122   12.6870 C.ar    1  UNL1        0.0120
     12 C          62.7901   80.2971   11.3284 C.ar    1  UNL1        0.0589
     13 CL         62.7056   79.4264   10.1099 Cl      1  UNL1       -0.0822
     14 C          63.1237   81.7528   11.1882 C.ar    1  UNL1        0.0267
     15 C          63.2083   82.6236   12.4067 C.ar    1  UNL1        0.0585
     16 C          63.7909   84.6642   10.9079 C.3     1  UNL1        0.0970
     17 C          62.6345   85.0277   10.0244 C.3     1  UNL1        0.0391
     18 C          61.5965   85.9965   10.5082 C.3     1  UNL1        0.0739
     19 N          59.4305   88.6271    7.5691 N.3     1  UNL1       -0.2682
     20 C          59.3544   87.1348    7.4378 C.3     1  UNL1        0.0897
     21 C          60.0764   86.2579    8.4175 C.3     1  UNL1        0.0897
     22 N          60.8745   86.8734    9.5284 N.3     1  UNL1       -0.2703
     23 C          60.9506   88.3657    9.6597 C.3     1  UNL1        0.0897
     24 C          60.2286   89.2425    8.6801 C.3     1  UNL1        0.0897
     25 C          58.7084   89.5040    6.5894 C.3     1  UNL1        0.1043
     26 O          58.9980   91.8219    5.4522 O.3     1  UNL1       -0.3805
     27 C          59.4835   90.4231    5.6925 C.3     1  UNL1        0.1544
     28 H          59.6099   92.2781    4.8536 H       1  UNL1        0.2105
@<TRIPOS>BOND
     1    26    27    1
     2    27    25    1
     3    25    19    1
     4    19    20    1
     5    20    21    1
     6    21    22    1
     7    22    18    1
     8    18    17    1
     9    17    16    1
    10    16     1    1
    11     1     2    1
    12     2     3   ar
    13     3     4   ar
    14     4     5   ar
    15     5     6   ar
    16     6     7   ar
    17     7     8    1
    18     8     9    1
    19     9    10   ar
    20    10    11   ar
    21    11    12   ar
    22    12    13    1
    23    12    14   ar
    24    14    15   ar
    25    22    23    1
    26    23    24    1
    27    24    19    1
    28    15     1    1
    29     7     2   ar
    30    15     9   ar
    31    26    28    1
@<TRIPOS>MOLECULE
*****
 28 31 0 0 0
SMALL
GASTEIGER

@<TRIPOS>ATOM
      1 N          62.1049   87.4381   11.0648 N.pl3   1  UNL1       -0.2860
      2 C          61.2011   87.5293    9.8710 C.ar    1  UNL1        0.0576
      3 C          60.6380   86.2808    9.2595 C.ar    1  UNL1        0.0153
      4 C          59.7343   86.3721    8.0658 C.ar    1  UNL1        0.0013
      5 C          59.3938   87.7119    7.4836 C.ar    1  UNL1        0.0006
      6 C          59.9569   88.9604    8.0951 C.ar    1  UNL1        0.0077
      7 C          60.8606   88.8691    9.2888 C.ar    1  UNL1        0.0431
      8 S          61.4238   90.1177    9.9004 S.3     1  UNL1       -0.0844
      9 C          62.3275   90.0265   11.0941 C.ar    1  UNL1        0.0431
     10 C          62.8907   91.2750   11.7056 C.ar    1  UNL1        0.0086
     11 C          63.7944   91.1838   12.8993 C.ar    1  UNL1        0.0120
     12 C          64.1349   89.8440   13.4815 C.ar    1  UNL1        0.0589
     13 CL         65.0386   89.7527   14.6753 Cl      1  UNL1       -0.0822
     14 C          63.5718   88.5954   12.8701 C.ar    1  UNL1        0.0267
     15 C          62.6680   88.6867   11.6763 C.ar    1  UNL1        0.0585
     16 C          62.4454   86.0983   11.6470 C.3     1  UNL1        0.0970
     17 C          63.0990   86.0102   12.9942 C.3     1  UNL1        0.0391
     18 C          63.9726   84.8376   13.3288 C.3     1  UNL1        0.0739
     19 N          63.0024   80.7655   11.6774 N.3     1  UNL1       -0.2682
     20 C          62.5414   81.1463   13.0531 C.3     1  UNL1        0.0897
     21 C          62.8648   82.5037   13.6036 C.3     1  UNL1        0.0897
     22 N          63.6491   83.4802   12.7783 N.3     1  UNL1       -0.2703
     23 C          64.1101   83.0994   11.4026 C.3     1  UNL1        0.0897
     24 C          63.7867   81.7421   10.8522 C.3     1  UNL1        0.0897
     25 C          62.6789   79.4081   11.1270 C.3     1  UNL1        0.1043
     26 O          63.7994   78.3858    9.0177 O.3     1  UNL1       -0.3805
     27 C          62.6905   79.1776    9.6449 C.3     1  UNL1        0.1544
     28 H          63.6562   78.3315    8.0599 H       1  UNL1        0.2105
@<TRIPOS>BOND
     1    26    27    1
     2    27    25    1
     3    25    19    1
     4    19    20    1
     5    20    21    1
     6    21    22    1
     7    22    18    1
     8    18    17    1
     9    17    16    1
    10    16     1    1
    11     1     2    1
    12     2     3   ar
    13     3     4   ar
    14     4     5   ar
    15     5     6   ar
    16     6     7   ar
    17     7     8    1
    18     8     9    1
    19     9    10   ar
    20    10    11   ar
    21    11    12   ar
    22    12    13    1
    23    12    14   ar
    24    14    15   ar
    25    22    23    1
    26    23    24    1
    27    24    19    1
    28    15     1    1
    29     7     2   ar
    30    15     9   ar
    31    26    28    1
