@<TRIPOS>MOLECULE
*****
 31 33 0 0 0
SMALL
GASTEIGER

@<TRIPOS>ATOM
      1 C          64.1280   91.1338   14.2361 C.ar    1  UNL1        0.1329
      2 N          64.7498   91.5601   15.5328 N.ar    1  UNL1       -0.1993
      3 C          65.8311   92.5997   15.5401 C.ar    1  UNL1        0.2148
      4 N          66.4529   93.0261   16.8369 N.pl3   1  UNL1       -0.3274
      5 N          66.2906   93.2129   14.2506 N.ar    1  UNL1       -0.2139
      6 C          65.6688   92.7865   12.9538 C.ar    1  UNL1        0.0870
      7 C          66.1284   93.3997   11.6643 C.ar    1  UNL1        0.0193
      8 C          65.5066   92.9734   10.3676 C.ar    1  UNL1        0.0017
      9 C          64.4252   91.9338   10.3603 C.ar    1  UNL1        0.0047
     10 C          63.9657   91.3206   11.6498 C.ar    1  UNL1        0.0575
     11 C          64.5875   91.7470   12.9465 C.ar    1  UNL1        0.0535
     12 H          66.1513   92.6236   17.6832 H       1  UNL1        0.1452
     13 H          67.1626   93.7084   16.8417 H       1  UNL1        0.1452
     14 C          62.8844   90.2811   11.6426 C.2     1  UNL1        0.2462
     15 O          63.2165   88.8513   11.9512 O.2     1  UNL1       -0.2701
     16 N          61.4710   90.6713   11.3266 N.am    1  UNL1       -0.2987
     17 H          61.2530   91.6097   11.1240 H       1  UNL1        0.1500
     18 C          60.3896   89.6317   11.3193 C.3     1  UNL1        0.0944
     19 C          59.3835   89.5883   12.4311 C.3     1  UNL1        0.0262
     20 C          60.3144   88.6356   10.2004 C.ar    1  UNL1       -0.0045
     21 C          60.7080   87.2080   10.4395 C.ar    1  UNL1       -0.0027
     22 C          60.6328   86.2119    9.3206 C.ar    1  UNL1       -0.0003
     23 C          60.1640   86.6433    7.9625 C.ar    1  UNL1       -0.0000
     24 C          59.7705   88.0708    7.7235 C.ar    1  UNL1       -0.0003
     25 C          59.8457   89.0670    8.8425 C.ar    1  UNL1       -0.0027
     26 N          63.0467   90.0942   14.2288 N.pl3   1  UNL1       -0.3180
     27 H          62.5310   89.9260   13.4072 H       1  UNL1        0.1482
     28 C          62.7510   89.3109   15.4734 C.3     1  UNL1        0.0882
     29 C          63.6054   88.1335   15.8393 C.3     1  UNL1        0.0212
     30 C          64.7719   85.9739   14.9875 C.3     1  UNL1        0.0001
     31 C          64.3724   87.4043   14.7763 C.3     1  UNL1        0.0017
@<TRIPOS>BOND
     1    30    31    1
     2    31    29    1
     3    29    28    1
     4    28    26    1
     5    26     1    1
     6     1     2   ar
     7     2     3   ar
     8     3     4    1
     9     3     5   ar
    10     5     6   ar
    11     6     7   ar
    12     7     8   ar
    13     8     9   ar
    14     9    10   ar
    15    10    14    1
    16    14    15    2
    17    14    16   am
    18    16    18    1
    19    18    19    1
    20    18    20    1
    21    20    21   ar
    22    21    22   ar
    23    22    23   ar
    24    23    24   ar
    25    24    25   ar
    26    10    11   ar
    27    11     1   ar
    28    11     6   ar
    29    25    20   ar
    30    26    27    1
    31     4    12    1
    32     4    13    1
    33    16    17    1
@<TRIPOS>MOLECULE
*****
 31 33 0 0 0
SMALL
GASTEIGER

@<TRIPOS>ATOM
      1 C          64.2290   90.6780   14.2729 C.ar    1  UNL1        0.1329
      2 N          64.9946   91.2049   15.4503 N.ar    1  UNL1       -0.1993
      3 C          65.9003   92.3894   15.2868 C.ar    1  UNL1        0.2148
      4 N          66.6659   92.9163   16.4642 N.pl3   1  UNL1       -0.3274
      5 N          66.0404   93.0470   13.9460 N.ar    1  UNL1       -0.2139
      6 C          65.2748   92.5201   12.7685 C.ar    1  UNL1        0.0870
      7 C          65.4149   93.1777   11.4277 C.ar    1  UNL1        0.0193
      8 C          64.6493   92.6508   10.2503 C.ar    1  UNL1        0.0017
      9 C          63.7436   91.4663   10.4138 C.ar    1  UNL1        0.0047
     10 C          63.6035   90.8087   11.7546 C.ar    1  UNL1        0.0575
     11 C          64.3691   91.3356   12.9320 C.ar    1  UNL1        0.0535
     12 H          66.5739   92.4847   17.3443 H       1  UNL1        0.1452
     13 H          67.2603   93.6938   16.3570 H       1  UNL1        0.1452
     14 C          62.6979   89.6242   11.9181 C.2     1  UNL1        0.2462
     15 O          61.4460   89.7445   12.7356 O.2     1  UNL1       -0.2701
     16 N          63.0441   88.3194   11.2642 N.am    1  UNL1       -0.2987
     17 H          63.8658   88.2405   10.7277 H       1  UNL1        0.1500
     18 C          62.1384   87.1349   11.4277 C.3     1  UNL1        0.0944
     19 C          60.6813   87.2529   11.0915 C.3     1  UNL1        0.0262
     20 C          62.6898   85.8325   11.9273 C.ar    1  UNL1       -0.0045
     21 C          62.4646   84.5731   11.1444 C.ar    1  UNL1       -0.0027
     22 C          63.0160   83.2707   11.6440 C.ar    1  UNL1       -0.0003
     23 C          63.7926   83.2277   12.9267 C.ar    1  UNL1       -0.0000
     24 C          64.0178   84.4872   13.7096 C.ar    1  UNL1       -0.0003
     25 C          63.4664   85.7896   13.2099 C.ar    1  UNL1       -0.0027
     26 N          63.3234   89.4935   14.4364 N.pl3   1  UNL1       -0.3180
     27 H          62.5201   89.4067   13.8739 H       1  UNL1        0.1482
     28 C          63.6415   88.4414   15.4570 C.3     1  UNL1        0.0882
     29 C          63.0865   88.5518   16.8462 C.3     1  UNL1        0.0212
     30 C          63.0353   85.9615   17.0405 C.3     1  UNL1        0.0001
     31 C          62.7122   87.3131   17.6050 C.3     1  UNL1        0.0017
@<TRIPOS>BOND
     1    30    31    1
     2    31    29    1
     3    29    28    1
     4    28    26    1
     5    26     1    1
     6     1     2   ar
     7     2     3   ar
     8     3     4    1
     9     3     5   ar
    10     5     6   ar
    11     6     7   ar
    12     7     8   ar
    13     8     9   ar
    14     9    10   ar
    15    10    14    1
    16    14    15    2
    17    14    16   am
    18    16    18    1
    19    18    19    1
    20    18    20    1
    21    20    21   ar
    22    21    22   ar
    23    22    23   ar
    24    23    24   ar
    25    24    25   ar
    26    10    11   ar
    27    11     1   ar
    28    11     6   ar
    29    25    20   ar
    30    26    27    1
    31     4    12    1
    32     4    13    1
    33    16    17    1
@<TRIPOS>MOLECULE
*****
 31 33 0 0 0
SMALL
GASTEIGER

@<TRIPOS>ATOM
      1 C          63.2633   86.9921   12.9789 C.ar    1  UNL1        0.1329
      2 N          63.3386   85.5161   12.7223 N.ar    1  UNL1       -0.1993
      3 C          62.8412   84.9543   11.4235 C.ar    1  UNL1        0.2148
      4 N          62.9166   83.4783   11.1669 N.pl3   1  UNL1       -0.3274
      5 N          62.2686   85.8684   10.3812 N.ar    1  UNL1       -0.2139
      6 C          62.1932   87.3445   10.6377 C.ar    1  UNL1        0.0870
      7 C          61.6205   88.2586    9.5955 C.ar    1  UNL1        0.0193
      8 C          61.5452   89.7345    9.8521 C.ar    1  UNL1        0.0017
      9 C          62.0426   90.2964   11.1509 C.ar    1  UNL1        0.0047
     10 C          62.6153   89.3822   12.1932 C.ar    1  UNL1        0.0575
     11 C          62.6906   87.9063   11.9366 C.ar    1  UNL1        0.0535
     12 H          63.2924   82.8783   11.8510 H       1  UNL1        0.1452
     13 H          62.5901   83.1095   10.3144 H       1  UNL1        0.1452
     14 C          63.1126   89.9440   13.4920 C.2     1  UNL1        0.2462
     15 O          62.2792   89.8163   14.7326 O.2     1  UNL1       -0.2701
     16 N          64.4434   90.6336   13.5503 N.am    1  UNL1       -0.2987
     17 H          64.9904   90.7175   12.7361 H       1  UNL1        0.1500
     18 C          64.9408   91.1954   14.8492 C.3     1  UNL1        0.0944
     19 C          64.0609   91.1687   16.0638 C.3     1  UNL1        0.0262
     20 C          66.3179   91.7840   14.9334 C.ar    1  UNL1       -0.0045
     21 C          67.3160   91.5156   13.8464 C.ar    1  UNL1       -0.0027
     22 C          68.6931   92.1041   13.9306 C.ar    1  UNL1       -0.0003
     23 C          69.0722   92.9611   15.1020 C.ar    1  UNL1       -0.0000
     24 C          68.0740   93.2295   16.1890 C.ar    1  UNL1       -0.0003
     25 C          66.6968   92.6409   16.1047 C.ar    1  UNL1       -0.0027
     26 N          63.7606   87.5539   14.2777 N.pl3   1  UNL1       -0.3180
     27 H          63.6256   88.5066   14.4858 H       1  UNL1        0.1482
     28 C          64.4637   86.6641   15.2595 C.3     1  UNL1        0.0882
     29 C          63.6747   85.7066   16.1026 C.3     1  UNL1        0.0212
     30 C          62.8753   87.6566   17.6219 C.3     1  UNL1        0.0001
     31 C          62.7730   86.2259   17.1830 C.3     1  UNL1        0.0017
@<TRIPOS>BOND
     1    30    31    1
     2    31    29    1
     3    29    28    1
     4    28    26    1
     5    26     1    1
     6     1     2   ar
     7     2     3   ar
     8     3     4    1
     9     3     5   ar
    10     5     6   ar
    11     6     7   ar
    12     7     8   ar
    13     8     9   ar
    14     9    10   ar
    15    10    14    1
    16    14    15    2
    17    14    16   am
    18    16    18    1
    19    18    19    1
    20    18    20    1
    21    20    21   ar
    22    21    22   ar
    23    22    23   ar
    24    23    24   ar
    25    24    25   ar
    26    10    11   ar
    27    11     1   ar
    28    11     6   ar
    29    25    20   ar
    30    26    27    1
    31     4    12    1
    32     4    13    1
    33    16    17    1
@<TRIPOS>MOLECULE
*****
 31 33 0 0 0
SMALL
GASTEIGER

@<TRIPOS>ATOM
      1 C          63.1224   87.6686   12.3461 C.ar    1  UNL1        0.1329
      2 N          63.1993   86.2361   12.7844 N.ar    1  UNL1       -0.1993
      3 C          62.3916   85.1902   12.0746 C.ar    1  UNL1        0.2148
      4 N          62.4687   83.7577   12.5129 N.pl3   1  UNL1       -0.3274
      5 N          61.5070   85.5768   10.9266 N.ar    1  UNL1       -0.2139
      6 C          61.4299   87.0093   10.4884 C.ar    1  UNL1        0.0870
      7 C          60.5453   87.3958    9.3404 C.ar    1  UNL1        0.0193
      8 C          60.4683   88.8283    8.9022 C.ar    1  UNL1        0.0017
      9 C          61.2760   89.8742    9.6119 C.ar    1  UNL1        0.0047
     10 C          62.1606   89.4877   10.7599 C.ar    1  UNL1        0.0575
     11 C          62.2376   88.0552   11.1981 C.ar    1  UNL1        0.0535
     12 H          63.0493   83.5040   13.2664 H       1  UNL1        0.1452
     13 H          61.9386   83.0712   12.0471 H       1  UNL1        0.1452
     14 C          62.9683   90.5336   11.4696 C.2     1  UNL1        0.2462
     15 O          62.4863   91.0965   12.7737 O.2     1  UNL1       -0.2701
     16 N          64.2581   91.0165   10.8753 N.am    1  UNL1       -0.2987
     17 H          64.5745   90.6470   10.0194 H       1  UNL1        0.1500
     18 C          65.0658   92.0624   11.5850 C.3     1  UNL1        0.0944
     19 C          64.9876   92.1852   13.0780 C.3     1  UNL1        0.0262
     20 C          65.9515   92.9854   10.8019 C.ar    1  UNL1       -0.0045
     21 C          67.1657   92.4474   10.1044 C.ar    1  UNL1       -0.0027
     22 C          68.0514   93.3704    9.3213 C.ar    1  UNL1       -0.0003
     23 C          67.7231   94.8316    9.2355 C.ar    1  UNL1       -0.0000
     24 C          66.5090   95.3696    9.9330 C.ar    1  UNL1       -0.0003
     25 C          65.6232   94.4465   10.7162 C.ar    1  UNL1       -0.0027
     26 N          63.9300   88.7145   13.0559 N.pl3   1  UNL1       -0.3180
     27 H          64.2589   89.5008   12.5632 H       1  UNL1        0.1482
     28 C          64.2367   88.5623   14.5162 C.3     1  UNL1        0.0882
     29 C          63.7792   89.6061   15.4915 C.3     1  UNL1        0.0212
     30 C          63.0001   87.7553   17.1400 C.3     1  UNL1        0.0001
     31 C          63.0516   89.1998   16.7387 C.3     1  UNL1        0.0017
@<TRIPOS>BOND
     1    30    31    1
     2    31    29    1
     3    29    28    1
     4    28    26    1
     5    26     1    1
     6     1     2   ar
     7     2     3   ar
     8     3     4    1
     9     3     5   ar
    10     5     6   ar
    11     6     7   ar
    12     7     8   ar
    13     8     9   ar
    14     9    10   ar
    15    10    14    1
    16    14    15    2
    17    14    16   am
    18    16    18    1
    19    18    19    1
    20    18    20    1
    21    20    21   ar
    22    21    22   ar
    23    22    23   ar
    24    23    24   ar
    25    24    25   ar
    26    10    11   ar
    27    11     1   ar
    28    11     6   ar
    29    25    20   ar
    30    26    27    1
    31     4    12    1
    32     4    13    1
    33    16    17    1
@<TRIPOS>MOLECULE
*****
 31 33 0 0 0
SMALL
GASTEIGER

@<TRIPOS>ATOM
      1 C          63.9002   88.4265   13.3033 C.ar    1  UNL1        0.1329
      2 N          63.9571   87.0504   13.8976 N.ar    1  UNL1       -0.1993
      3 C          63.2293   85.9174   13.2368 C.ar    1  UNL1        0.2148
      4 N          63.2862   84.5413   13.8311 N.pl3   1  UNL1       -0.3274
      5 N          62.4447   86.1604   11.9817 N.ar    1  UNL1       -0.2139
      6 C          62.3878   87.5365   11.3873 C.ar    1  UNL1        0.0870
      7 C          61.6032   87.7795   10.1323 C.ar    1  UNL1        0.0193
      8 C          61.5463   89.1556    9.5380 C.ar    1  UNL1        0.0017
      9 C          62.2741   90.2886   10.1988 C.ar    1  UNL1        0.0047
     10 C          63.0587   90.0456   11.4538 C.ar    1  UNL1        0.0575
     11 C          63.1156   88.6695   12.0481 C.ar    1  UNL1        0.0535
     12 H          63.8012   84.3818   14.6549 H       1  UNL1        0.1452
     13 H          62.8086   83.7976   13.3975 H       1  UNL1        0.1452
     14 C          63.7864   91.1786   12.1146 C.2     1  UNL1        0.2462
     15 O          63.2384   91.7920   13.3689 O.2     1  UNL1       -0.2701
     16 N          65.0622   91.6982   11.5211 N.am    1  UNL1       -0.2987
     17 H          65.4219   91.2956   10.6978 H       1  UNL1        0.1500
     18 C          65.7900   92.8313   12.1819 C.3     1  UNL1        0.0944
     19 C          65.7556   94.2016   11.5726 C.3     1  UNL1        0.0262
     20 C          66.5520   92.5940   13.4519 C.ar    1  UNL1       -0.0045
     21 C          67.8684   91.8760   13.4137 C.ar    1  UNL1       -0.0027
     22 C          68.6305   91.6387   14.6836 C.ar    1  UNL1       -0.0003
     23 C          68.0762   92.1196   15.9920 C.ar    1  UNL1       -0.0000
     24 C          66.7598   92.8376   16.0302 C.ar    1  UNL1       -0.0003
     25 C          65.9977   93.0748   14.7601 C.ar    1  UNL1       -0.0027
     26 N          64.6280   89.5595   13.9641 N.pl3   1  UNL1       -0.3180
     27 H          65.3252   90.0504   13.4719 H       1  UNL1        0.1482
     28 C          64.2935   89.9446   15.3746 C.3     1  UNL1        0.0882
     29 C          63.0500   89.4119   16.0227 C.3     1  UNL1        0.0212
     30 C          62.7570   87.1349   17.2392 C.3     1  UNL1        0.0001
     31 C          63.1500   88.5822   17.2685 C.3     1  UNL1        0.0017
@<TRIPOS>BOND
     1    30    31    1
     2    31    29    1
     3    29    28    1
     4    28    26    1
     5    26     1    1
     6     1     2   ar
     7     2     3   ar
     8     3     4    1
     9     3     5   ar
    10     5     6   ar
    11     6     7   ar
    12     7     8   ar
    13     8     9   ar
    14     9    10   ar
    15    10    14    1
    16    14    15    2
    17    14    16   am
    18    16    18    1
    19    18    19    1
    20    18    20    1
    21    20    21   ar
    22    21    22   ar
    23    22    23   ar
    24    23    24   ar
    25    24    25   ar
    26    10    11   ar
    27    11     1   ar
    28    11     6   ar
    29    25    20   ar
    30    26    27    1
    31     4    12    1
    32     4    13    1
    33    16    17    1
@<TRIPOS>MOLECULE
*****
 31 33 0 0 0
SMALL
GASTEIGER

@<TRIPOS>ATOM
      1 C          63.4916   88.0648   12.7958 C.ar    1  UNL1        0.1329
      2 N          64.0087   89.4210   13.1743 N.ar    1  UNL1       -0.1993
      3 C          63.6191   90.6242   12.3677 C.ar    1  UNL1        0.2148
      4 N          64.1362   91.9804   12.7464 N.pl3   1  UNL1       -0.3274
      5 N          62.7125   90.4712   11.1826 N.ar    1  UNL1       -0.2139
      6 C          62.1954   89.1149   10.8040 C.ar    1  UNL1        0.0870
      7 C          61.2889   88.9619    9.6188 C.ar    1  UNL1        0.0193
      8 C          60.7718   87.6058    9.2402 C.ar    1  UNL1        0.0017
      9 C          61.1613   86.4026   10.0468 C.ar    1  UNL1        0.0047
     10 C          62.0679   86.5556   11.2320 C.ar    1  UNL1        0.0575
     11 C          62.5850   87.9118   11.6105 C.ar    1  UNL1        0.0535
     12 H          64.7312   92.0809   13.5242 H       1  UNL1        0.1452
     13 H          63.8806   92.7702   12.2170 H       1  UNL1        0.1452
     14 C          62.4575   85.3524   12.0386 C.2     1  UNL1        0.2462
     15 O          61.7657   85.0645   13.3380 O.2     1  UNL1       -0.2701
     16 N          63.5388   84.4371   11.5458 N.am    1  UNL1       -0.2987
     17 H          63.9928   84.6260   10.6929 H       1  UNL1        0.1500
     18 C          63.9283   83.2339   12.3523 C.3     1  UNL1        0.0944
     19 C          64.7706   83.3965   13.5829 C.3     1  UNL1        0.0262
     20 C          63.4757   81.8681   11.9284 C.ar    1  UNL1       -0.0045
     21 C          63.0026   80.8824   12.9554 C.ar    1  UNL1       -0.0027
     22 C          62.5500   79.5166   12.5314 C.ar    1  UNL1       -0.0003
     23 C          62.5703   79.1365   11.0805 C.ar    1  UNL1       -0.0000
     24 C          63.0433   80.1223   10.0535 C.ar    1  UNL1       -0.0003
     25 C          63.4960   81.4881   10.4775 C.ar    1  UNL1       -0.0027
     26 N          63.8811   86.8616   13.6024 N.pl3   1  UNL1       -0.3180
     27 H          63.9013   85.9720   13.1811 H       1  UNL1        0.1482
     28 C          64.2400   87.0138   15.0508 C.3     1  UNL1        0.0882
     29 C          63.9242   85.9145   16.0212 C.3     1  UNL1        0.0212
     30 C          62.7095   86.6525   18.1961 C.3     1  UNL1        0.0001
     31 C          62.6782   85.9840   16.8537 C.3     1  UNL1        0.0017
@<TRIPOS>BOND
     1    30    31    1
     2    31    29    1
     3    29    28    1
     4    28    26    1
     5    26     1    1
     6     1     2   ar
     7     2     3   ar
     8     3     4    1
     9     3     5   ar
    10     5     6   ar
    11     6     7   ar
    12     7     8   ar
    13     8     9   ar
    14     9    10   ar
    15    10    14    1
    16    14    15    2
    17    14    16   am
    18    16    18    1
    19    18    19    1
    20    18    20    1
    21    20    21   ar
    22    21    22   ar
    23    22    23   ar
    24    23    24   ar
    25    24    25   ar
    26    10    11   ar
    27    11     1   ar
    28    11     6   ar
    29    25    20   ar
    30    26    27    1
    31     4    12    1
    32     4    13    1
    33    16    17    1
@<TRIPOS>MOLECULE
*****
 31 33 0 0 0
SMALL
GASTEIGER

@<TRIPOS>ATOM
      1 C          64.8009   91.7295   12.3616 C.ar    1  UNL1        0.1329
      2 N          64.9389   92.3368   10.9970 N.ar    1  UNL1       -0.1993
      3 C          65.9249   93.4430   10.7646 C.ar    1  UNL1        0.2148
      4 N          66.0629   94.0503    9.3999 N.pl3   1  UNL1       -0.3274
      5 N          66.7730   93.9420   11.8968 N.ar    1  UNL1       -0.2139
      6 C          66.6350   93.3347   13.2614 C.ar    1  UNL1        0.0870
      7 C          67.4831   93.8337   14.3936 C.ar    1  UNL1        0.0193
      8 C          67.3451   93.2264   15.7582 C.ar    1  UNL1        0.0017
      9 C          66.3591   92.1202   15.9906 C.ar    1  UNL1        0.0047
     10 C          65.5110   91.6212   14.8585 C.ar    1  UNL1        0.0575
     11 C          65.6490   92.2285   13.4939 C.ar    1  UNL1        0.0535
     12 H          65.5062   93.7228    8.6569 H       1  UNL1        0.1452
     13 H          66.7100   94.7764    9.2474 H       1  UNL1        0.1452
     14 C          64.5250   90.5150   15.0909 C.2     1  UNL1        0.2462
     15 O          63.0725   90.8339   15.2872 O.2     1  UNL1       -0.2701
     16 N          64.9914   89.0899   15.1270 N.am    1  UNL1       -0.2987
     17 H          65.9447   88.8805   14.9982 H       1  UNL1        0.1500
     18 C          64.0054   87.9836   15.3595 C.3     1  UNL1        0.0944
     19 C          63.0247   88.0785   16.4906 C.3     1  UNL1        0.0262
     20 C          64.0000   86.7826   14.4609 C.ar    1  UNL1       -0.0045
     21 C          63.2588   86.8244   13.1575 C.ar    1  UNL1       -0.0027
     22 C          63.2534   85.6234   12.2589 C.ar    1  UNL1       -0.0003
     23 C          63.9894   84.3805   12.6637 C.ar    1  UNL1       -0.0000
     24 C          64.7306   84.3387   13.9671 C.ar    1  UNL1       -0.0003
     25 C          64.7359   85.5398   14.8657 C.ar    1  UNL1       -0.0027
     26 N          63.8149   90.6233   12.5941 N.pl3   1  UNL1       -0.3180
     27 H          63.9508   89.9906   13.3360 H       1  UNL1        0.1482
     28 C          62.6218   90.4811   11.6962 C.3     1  UNL1        0.0882
     29 C          62.6947   89.5973   10.4864 C.3     1  UNL1        0.0212
     30 C          61.8583   87.3712    9.4400 C.3     1  UNL1        0.0001
     31 C          61.5783   88.6409   10.1879 C.3     1  UNL1        0.0017
@<TRIPOS>BOND
     1    30    31    1
     2    31    29    1
     3    29    28    1
     4    28    26    1
     5    26     1    1
     6     1     2   ar
     7     2     3   ar
     8     3     4    1
     9     3     5   ar
    10     5     6   ar
    11     6     7   ar
    12     7     8   ar
    13     8     9   ar
    14     9    10   ar
    15    10    14    1
    16    14    15    2
    17    14    16   am
    18    16    18    1
    19    18    19    1
    20    18    20    1
    21    20    21   ar
    22    21    22   ar
    23    22    23   ar
    24    23    24   ar
    25    24    25   ar
    26    10    11   ar
    27    11     1   ar
    28    11     6   ar
    29    25    20   ar
    30    26    27    1
    31     4    12    1
    32     4    13    1
    33    16    17    1
@<TRIPOS>MOLECULE
*****
 31 33 0 0 0
SMALL
GASTEIGER

@<TRIPOS>ATOM
      1 C          63.2184   86.3882   12.6917 C.ar    1  UNL1        0.1329
      2 N          63.4772   84.9311   12.9363 N.ar    1  UNL1       -0.1993
      3 C          62.9766   83.9065   11.9618 C.ar    1  UNL1        0.2148
      4 N          63.2355   82.4494   12.2064 N.pl3   1  UNL1       -0.3274
      5 N          62.2173   84.3391   10.7427 N.ar    1  UNL1       -0.2139
      6 C          61.9584   85.7962   10.4981 C.ar    1  UNL1        0.0870
      7 C          61.1990   86.2288    9.2790 C.ar    1  UNL1        0.0193
      8 C          60.9402   87.6858    9.0344 C.ar    1  UNL1        0.0017
      9 C          61.4408   88.7104   10.0089 C.ar    1  UNL1        0.0047
     10 C          62.2002   88.2779   11.2280 C.ar    1  UNL1        0.0575
     11 C          62.4590   86.8208   11.4726 C.ar    1  UNL1        0.0535
     12 H          63.7339   82.1655   13.0066 H       1  UNL1        0.1452
     13 H          62.9069   81.7769   11.5668 H       1  UNL1        0.1452
     14 C          62.7008   89.3024   12.2025 C.2     1  UNL1        0.2462
     15 O          61.8421   89.7196   13.3595 O.2     1  UNL1       -0.2701
     16 N          64.0600   89.9099   12.0201 N.am    1  UNL1       -0.2987
     17 H          64.6237   89.6362   11.2607 H       1  UNL1        0.1500
     18 C          64.5606   90.9345   12.9946 C.3     1  UNL1        0.0944
     19 C          64.4652   90.6765   14.4692 C.3     1  UNL1        0.0262
     20 C          65.1567   92.2169   12.4946 C.ar    1  UNL1       -0.0045
     21 C          65.9130   93.1089   13.4339 C.ar    1  UNL1       -0.0027
     22 C          66.5090   94.3913   12.9339 C.ar    1  UNL1       -0.0003
     23 C          66.3487   94.7818   11.4944 C.ar    1  UNL1       -0.0000
     24 C          65.5924   93.8898   10.5551 C.ar    1  UNL1       -0.0003
     25 C          64.9963   92.6074   11.0552 C.ar    1  UNL1       -0.0027
     26 N          63.7190   87.4128   13.6663 N.pl3   1  UNL1       -0.3180
     27 H          63.4974   88.3634   13.5383 H       1  UNL1        0.1482
     28 C          64.5572   86.9889   14.8357 C.3     1  UNL1        0.0882
     29 C          63.9231   86.2787   15.9948 C.3     1  UNL1        0.0212
     30 C          63.0961   88.4928   17.0736 C.3     1  UNL1        0.0001
     31 C          62.9671   87.0096   16.8903 C.3     1  UNL1        0.0017
@<TRIPOS>BOND
     1    30    31    1
     2    31    29    1
     3    29    28    1
     4    28    26    1
     5    26     1    1
     6     1     2   ar
     7     2     3   ar
     8     3     4    1
     9     3     5   ar
    10     5     6   ar
    11     6     7   ar
    12     7     8   ar
    13     8     9   ar
    14     9    10   ar
    15    10    14    1
    16    14    15    2
    17    14    16   am
    18    16    18    1
    19    18    19    1
    20    18    20    1
    21    20    21   ar
    22    21    22   ar
    23    22    23   ar
    24    23    24   ar
    25    24    25   ar
    26    10    11   ar
    27    11     1   ar
    28    11     6   ar
    29    25    20   ar
    30    26    27    1
    31     4    12    1
    32     4    13    1
    33    16    17    1
@<TRIPOS>MOLECULE
*****
 31 33 0 0 0
SMALL
GASTEIGER

@<TRIPOS>ATOM
      1 C          63.2572   85.1444   12.0773 C.ar    1  UNL1        0.1329
      2 N          63.9551   83.9511   12.6593 N.ar    1  UNL1       -0.1993
      3 C          64.3378   82.8011   11.7756 C.ar    1  UNL1        0.2148
      4 N          65.0357   81.6077   12.3577 N.pl3   1  UNL1       -0.3274
      5 N          64.0225   82.8444   10.3097 N.ar    1  UNL1       -0.2139
      6 C          63.3245   84.0377    9.7276 C.ar    1  UNL1        0.0870
      7 C          63.0093   84.0811    8.2618 C.ar    1  UNL1        0.0193
      8 C          62.3114   85.2744    7.6797 C.ar    1  UNL1        0.0017
      9 C          61.9287   86.4244    8.5635 C.ar    1  UNL1        0.0047
     10 C          62.2440   86.3811   10.0293 C.ar    1  UNL1        0.0575
     11 C          62.9419   85.1878   10.6114 C.ar    1  UNL1        0.0535
     12 H          65.2426   81.5793   13.3198 H       1  UNL1        0.1452
     13 H          65.2869   80.8529   11.7777 H       1  UNL1        0.1452
     14 C          61.8613   87.5311   10.9131 C.2     1  UNL1        0.2462
     15 O          60.6257   87.4478   11.7594 O.2     1  UNL1       -0.2701
     16 N          62.7142   88.7644   10.9506 N.am    1  UNL1       -0.2987
     17 H          63.5252   88.8190   10.3951 H       1  UNL1        0.1500
     18 C          62.3316   89.9144   11.8343 C.3     1  UNL1        0.0944
     19 C          60.9604   90.5142   11.7331 C.3     1  UNL1        0.0262
     20 C          63.3200   90.4646   12.8193 C.ar    1  UNL1       -0.0045
     21 C          63.1939   90.1286   14.2757 C.ar    1  UNL1       -0.0027
     22 C          64.1824   90.6788   15.2607 C.ar    1  UNL1       -0.0003
     23 C          65.2970   91.5651   14.7892 C.ar    1  UNL1       -0.0000
     24 C          65.4231   91.9011   13.3328 C.ar    1  UNL1       -0.0003
     25 C          64.4345   91.3509   12.3478 C.ar    1  UNL1       -0.0027
     26 N          62.8745   86.2944   12.9611 N.pl3   1  UNL1       -0.3180
     27 H          61.9430   86.6124   12.9794 H       1  UNL1        0.1482
     28 C          63.9111   86.9599   13.8169 C.3     1  UNL1        0.0882
     29 C          64.4425   86.2596   15.0323 C.3     1  UNL1        0.0212
     30 C          62.9709   86.3852   17.1698 C.3     1  UNL1        0.0001
     31 C          63.4957   85.6101   15.9977 C.3     1  UNL1        0.0017
@<TRIPOS>BOND
     1    30    31    1
     2    31    29    1
     3    29    28    1
     4    28    26    1
     5    26     1    1
     6     1     2   ar
     7     2     3   ar
     8     3     4    1
     9     3     5   ar
    10     5     6   ar
    11     6     7   ar
    12     7     8   ar
    13     8     9   ar
    14     9    10   ar
    15    10    14    1
    16    14    15    2
    17    14    16   am
    18    16    18    1
    19    18    19    1
    20    18    20    1
    21    20    21   ar
    22    21    22   ar
    23    22    23   ar
    24    23    24   ar
    25    24    25   ar
    26    10    11   ar
    27    11     1   ar
    28    11     6   ar
    29    25    20   ar
    30    26    27    1
    31     4    12    1
    32     4    13    1
    33    16    17    1
