@<TRIPOS>MOLECULE
*****
 40 45 0 0 0
SMALL
GASTEIGER

@<TRIPOS>ATOM
      1 C          61.1748   92.2937    3.0396 C.3     1  UNL1        0.0609
      2 C          61.8616   91.2466    3.8652 C.3     1  UNL1        0.0375
      3 C          61.1037   90.5196    4.9363 C.3     1  UNL1        0.0949
      4 N          59.6591   90.8398    5.1817 N.am    1  UNL1       -0.2773
      5 C          58.9012   90.1128    6.2528 C.2     1  UNL1        0.2553
      6 O          57.4565   90.4331    6.4982 O.2     1  UNL1       -0.2720
      7 C          58.9722   91.8870    4.3561 C.3     1  UNL1        0.0949
      8 C          59.7300   92.6139    3.2850 C.3     1  UNL1        0.0375
      9 C          65.9445   96.7957    0.1204 C.3     1  UNL1        0.1301
     10 N          64.9556   95.8866   -0.5471 N.ar    1  UNL1       -0.3289
     11 C          63.9896   94.9729    0.1471 C.ar    1  UNL1        0.0346
     12 C          63.1961   94.2532   -0.9028 C.ar    1  UNL1       -0.0077
     13 C          63.6717   94.7222   -2.2460 C.ar    1  UNL1        0.0129
     14 C          63.2550   94.3604   -3.6407 C.ar    1  UNL1        0.0012
     15 C          63.9258   95.0081   -4.8157 C.ar    1  UNL1        0.0001
     16 C          65.0132   96.0176   -4.5958 C.ar    1  UNL1        0.0015
     17 C          65.4299   96.3794   -3.2010 C.ar    1  UNL1        0.0172
     18 C          64.7591   95.7317   -2.0261 C.ar    1  UNL1        0.0594
     19 C          62.1088   93.2362   -0.7200 C.3     1  UNL1        0.0448
     20 C          61.5465   92.6876    0.5579 C.3     1  UNL1        0.0768
     21 N          61.9326   93.0206    1.9685 N.3     1  UNL1       -0.2732
     22 C          62.9764   93.9845    2.4497 C.3     1  UNL1        0.0783
     23 C          63.8919   94.8533    1.6391 C.3     1  UNL1        0.0608
     24 C          59.5881   89.0657    7.0784 C.3     1  UNL1        0.2042
     25 F          59.2561   88.2590    5.8582 F       1  UNL1       -0.2306
     26 C          59.6815   90.2361    8.0119 C.3     1  UNL1        0.0590
     27 C          60.3465   90.0791    9.3473 C.3     1  UNL1        0.0756
     28 N          60.9181   88.7518    9.7491 N.3     1  UNL1       -0.2688
     29 C          60.8246   87.5814    8.8156 C.3     1  UNL1        0.0756
     30 C          60.1596   87.7383    7.4802 C.3     1  UNL1        0.0590
     31 C          61.5831   88.5949   11.0845 C.3     1  UNL1        0.0993
     32 C          62.5727   89.6195   11.5544 C.ar    1  UNL1       -0.0018
     33 C          63.0366   89.6152   12.9810 C.ar    1  UNL1        0.0179
     34 C          64.0262   90.6397   13.4509 C.ar    1  UNL1        0.1000
     35 N          64.5520   91.6686   12.4944 N.ar    1  UNL1       -0.2296
     36 C          64.0881   91.6729   11.0678 C.ar    1  UNL1        0.1251
     37 N          64.6139   92.7018   10.1114 N.pl3   1  UNL1       -0.3426
     38 C          63.0985   90.6484   10.5980 C.ar    1  UNL1        0.0310
     39 H          65.2635   93.3743   10.4199 H       1  UNL1        0.1437
     40 H          64.3095   92.7047    9.1751 H       1  UNL1        0.1437
@<TRIPOS>BOND
     1     9    10    1
     2    10    11   ar
     3    11    12   ar
     4    12    13   ar
     5    13    14   ar
     6    14    15   ar
     7    15    16   ar
     8    16    17   ar
     9    17    18   ar
    10    12    19    1
    11    19    20    1
    12    20    21    1
    13    21     1    1
    14     1     2    1
    15     2     3    1
    16     3     4    1
    17     4     5   am
    18     5     6    2
    19     5    24    1
    20    24    25    1
    21    24    26    1
    22    26    27    1
    23    27    28    1
    24    28    31    1
    25    31    32    1
    26    32    33   ar
    27    33    34   ar
    28    34    35   ar
    29    35    36   ar
    30    36    37    1
    31    36    38   ar
    32    28    29    1
    33    29    30    1
    34     4     7    1
    35     7     8    1
    36    21    22    1
    37    22    23    1
    38    18    10   ar
    39     8     1    1
    40    23    11    1
    41    18    13   ar
    42    30    24    1
    43    38    32   ar
    44    37    39    1
    45    37    40    1
@<TRIPOS>MOLECULE
*****
 40 45 0 0 0
SMALL
GASTEIGER

@<TRIPOS>ATOM
      1 C          60.2482   91.9102    3.6508 C.3     1  UNL1        0.0609
      2 C          61.2447   91.0561    4.3770 C.3     1  UNL1        0.0375
      3 C          60.7998   90.1903    5.5183 C.3     1  UNL1        0.0949
      4 N          59.3585   90.1786    5.9333 N.am    1  UNL1       -0.2773
      5 C          58.9136   89.3128    7.0746 C.2     1  UNL1        0.2553
      6 O          57.4722   89.3011    7.4897 O.2     1  UNL1       -0.2720
      7 C          58.3620   91.0328    5.2071 C.3     1  UNL1        0.0949
      8 C          58.8068   91.8986    4.0659 C.3     1  UNL1        0.0375
      9 C          59.7146   96.3977   -1.9275 C.3     1  UNL1        0.1301
     10 N          60.9355   95.7876   -1.3052 N.ar    1  UNL1       -0.3289
     11 C          60.9536   94.8528   -0.1322 C.ar    1  UNL1        0.0346
     12 C          62.3819   94.4926    0.1512 C.ar    1  UNL1       -0.0077
     13 C          63.2464   95.2047   -0.8465 C.ar    1  UNL1        0.0129
     14 C          64.7321   95.2277   -1.0517 C.ar    1  UNL1        0.0012
     15 C          65.3238   96.0511   -2.1571 C.ar    1  UNL1        0.0001
     16 C          64.4299   96.8514   -3.0572 C.ar    1  UNL1        0.0015
     17 C          62.9442   96.8284   -2.8520 C.ar    1  UNL1        0.0172
     18 C          62.3524   96.0050   -1.7467 C.ar    1  UNL1        0.0594
     19 C          62.9245   93.5910    1.2203 C.3     1  UNL1        0.0448
     20 C          62.1729   92.8271    2.2698 C.3     1  UNL1        0.0768
     21 N          60.6930   92.7760    2.5096 N.3     1  UNL1       -0.2732
     22 C          59.5993   93.4763    1.7590 C.3     1  UNL1        0.0783
     23 C          59.7153   94.4005    0.5833 C.3     1  UNL1        0.0608
     24 C          59.9101   88.4587    7.8008 C.3     1  UNL1        0.2042
     25 F          59.6751   87.6097    6.5868 F       1  UNL1       -0.2306
     26 C          59.7990   89.6043    8.7627 C.3     1  UNL1        0.0590
     27 C          60.6029   89.6009   10.0291 C.3     1  UNL1        0.0756
     28 N          61.5178   88.4519   10.3337 N.3     1  UNL1       -0.2688
     29 C          61.6289   87.3063    9.3718 C.3     1  UNL1        0.0756
     30 C          60.8251   87.3097    8.1054 C.3     1  UNL1        0.0590
     31 C          62.3216   88.4486   11.6002 C.3     1  UNL1        0.0993
     32 C          63.1313   89.6536   11.9777 C.ar    1  UNL1       -0.0018
     33 C          63.5695   89.8475   13.3991 C.ar    1  UNL1        0.0179
     34 C          64.3791   91.0524   13.7766 C.ar    1  UNL1        0.1000
     35 N          64.7506   92.0635   12.7327 N.ar    1  UNL1       -0.2296
     36 C          64.3124   91.8696   11.3113 C.ar    1  UNL1        0.1251
     37 N          64.6839   92.8807   10.2674 N.pl3   1  UNL1       -0.3426
     38 C          63.5028   90.6647   10.9338 C.ar    1  UNL1        0.0310
     39 H          65.2153   93.6715   10.5152 H       1  UNL1        0.1437
     40 H          64.3963   92.7535    9.3345 H       1  UNL1        0.1437
@<TRIPOS>BOND
     1     9    10    1
     2    10    11   ar
     3    11    12   ar
     4    12    13   ar
     5    13    14   ar
     6    14    15   ar
     7    15    16   ar
     8    16    17   ar
     9    17    18   ar
    10    12    19    1
    11    19    20    1
    12    20    21    1
    13    21     1    1
    14     1     2    1
    15     2     3    1
    16     3     4    1
    17     4     5   am
    18     5     6    2
    19     5    24    1
    20    24    25    1
    21    24    26    1
    22    26    27    1
    23    27    28    1
    24    28    31    1
    25    31    32    1
    26    32    33   ar
    27    33    34   ar
    28    34    35   ar
    29    35    36   ar
    30    36    37    1
    31    36    38   ar
    32    28    29    1
    33    29    30    1
    34     4     7    1
    35     7     8    1
    36    21    22    1
    37    22    23    1
    38    18    10   ar
    39     8     1    1
    40    23    11    1
    41    18    13   ar
    42    30    24    1
    43    38    32   ar
    44    37    39    1
    45    37    40    1
@<TRIPOS>MOLECULE
*****
 40 45 0 0 0
SMALL
GASTEIGER

@<TRIPOS>ATOM
      1 C          60.2587   91.8569    3.6324 C.3     1  UNL1        0.0609
      2 C          61.2369   91.0110    4.3924 C.3     1  UNL1        0.0375
      3 C          60.7604   90.1410    5.5176 C.3     1  UNL1        0.0949
      4 N          59.3058   90.1169    5.8828 N.am    1  UNL1       -0.2773
      5 C          58.8294   89.2469    7.0081 C.2     1  UNL1        0.2553
      6 O          57.3747   89.2227    7.3732 O.2     1  UNL1       -0.2720
      7 C          58.3277   90.9628    5.1228 C.3     1  UNL1        0.0949
      8 C          58.8041   91.8328    3.9976 C.3     1  UNL1        0.0375
      9 C          59.8778   96.3133   -1.9832 C.3     1  UNL1        0.1301
     10 N          61.0824   95.7287   -1.3071 N.ar    1  UNL1       -0.3289
     11 C          61.0684   94.7987   -0.1303 C.ar    1  UNL1        0.0346
     12 C          62.4899   94.4667    0.2149 C.ar    1  UNL1       -0.0077
     13 C          63.3824   95.1915   -0.7485 C.ar    1  UNL1        0.0129
     14 C          64.8747   95.2420   -0.8907 C.ar    1  UNL1        0.0012
     15 C          65.4972   96.0725   -1.9736 C.ar    1  UNL1        0.0001
     16 C          64.6273   96.8525   -2.9143 C.ar    1  UNL1        0.0015
     17 C          63.1350   96.8020   -2.7721 C.ar    1  UNL1        0.0172
     18 C          62.5125   95.9715   -1.6892 C.ar    1  UNL1        0.0594
     19 C          63.0036   93.5795    1.3100 C.3     1  UNL1        0.0448
     20 C          62.2227   92.8052    2.3301 C.3     1  UNL1        0.0768
     21 N          60.7352   92.7269    2.5072 N.3     1  UNL1       -0.2732
     22 C          59.6613   93.4035    1.7079 C.3     1  UNL1        0.0783
     23 C          59.8096   94.3255    0.5341 C.3     1  UNL1        0.0608
     24 C          59.8076   88.4010    7.7680 C.3     1  UNL1        0.2042
     25 F          59.4924   87.4760    6.6301 F       1  UNL1       -0.2306
     26 C          59.7830   89.6198    8.6421 C.3     1  UNL1        0.0590
     27 C          60.6272   89.6715    9.8809 C.3     1  UNL1        0.0756
     28 N          61.4960   88.5043   10.2457 N.3     1  UNL1       -0.2688
     29 C          61.5205   87.2856    9.3717 C.3     1  UNL1        0.0756
     30 C          60.6763   87.2339    8.1328 C.3     1  UNL1        0.0590
     31 C          62.3402   88.5560   11.4845 C.3     1  UNL1        0.0993
     32 C          63.1947   89.7576   11.7601 C.ar    1  UNL1       -0.0018
     33 C          63.4915   90.7348   10.6615 C.ar    1  UNL1        0.0179
     34 C          64.3460   91.9364   10.9371 C.ar    1  UNL1        0.1000
     35 N          64.9037   92.1608   12.3114 N.ar    1  UNL1       -0.2296
     36 C          64.6069   91.1836   13.4100 C.ar    1  UNL1        0.1251
     37 N          65.1646   91.4080   14.7843 N.pl3   1  UNL1       -0.3426
     38 C          63.7524   89.9821   13.1344 C.ar    1  UNL1        0.0310
     39 H          65.7255   92.1967   14.9652 H       1  UNL1        0.1437
     40 H          64.9698   90.7667   15.5054 H       1  UNL1        0.1437
@<TRIPOS>BOND
     1     9    10    1
     2    10    11   ar
     3    11    12   ar
     4    12    13   ar
     5    13    14   ar
     6    14    15   ar
     7    15    16   ar
     8    16    17   ar
     9    17    18   ar
    10    12    19    1
    11    19    20    1
    12    20    21    1
    13    21     1    1
    14     1     2    1
    15     2     3    1
    16     3     4    1
    17     4     5   am
    18     5     6    2
    19     5    24    1
    20    24    25    1
    21    24    26    1
    22    26    27    1
    23    27    28    1
    24    28    31    1
    25    31    32    1
    26    32    33   ar
    27    33    34   ar
    28    34    35   ar
    29    35    36   ar
    30    36    37    1
    31    36    38   ar
    32    28    29    1
    33    29    30    1
    34     4     7    1
    35     7     8    1
    36    21    22    1
    37    22    23    1
    38    18    10   ar
    39     8     1    1
    40    23    11    1
    41    18    13   ar
    42    30    24    1
    43    38    32   ar
    44    37    39    1
    45    37    40    1
@<TRIPOS>MOLECULE
*****
 40 45 0 0 0
SMALL
GASTEIGER

@<TRIPOS>ATOM
      1 C          60.2739   91.6495    4.0201 C.3     1  UNL1        0.0609
      2 C          61.3706   91.1018    4.8844 C.3     1  UNL1        0.0375
      3 C          61.0372   90.2124    6.0454 C.3     1  UNL1        0.0949
      4 N          59.6072   89.8708    6.3420 N.am    1  UNL1       -0.2773
      5 C          59.2738   88.9814    7.5031 C.2     1  UNL1        0.2553
      6 O          57.8437   88.6397    7.7997 O.2     1  UNL1       -0.2720
      7 C          58.5104   90.4185    5.4777 C.3     1  UNL1        0.0949
      8 C          58.8437   91.3078    4.3167 C.3     1  UNL1        0.0375
      9 C          59.1853   96.0348   -1.5589 C.3     1  UNL1        0.1301
     10 N          60.4724   95.5292   -0.9776 N.ar    1  UNL1       -0.3289
     11 C          60.6069   94.6084    0.1988 C.ar    1  UNL1        0.0346
     12 C          62.0685   94.3658    0.4327 C.ar    1  UNL1       -0.0077
     13 C          62.8373   95.1367   -0.5991 C.ar    1  UNL1        0.0129
     14 C          64.3082   95.2768   -0.8576 C.ar    1  UNL1        0.0012
     15 C          64.7926   96.1359   -1.9877 C.ar    1  UNL1        0.0001
     16 C          63.8061   96.8549   -2.8594 C.ar    1  UNL1        0.0015
     17 C          62.3352   96.7148   -2.6009 C.ar    1  UNL1        0.0172
     18 C          61.8508   95.8557   -1.4708 C.ar    1  UNL1        0.0594
     19 C          62.7192   93.5192    1.4863 C.3     1  UNL1        0.0448
     20 C          62.0688   92.7061    2.5661 C.3     1  UNL1        0.0768
     21 N          60.6073   92.5388    2.8591 N.3     1  UNL1       -0.2732
     22 C          59.4350   93.1433    2.1446 C.3     1  UNL1        0.0783
     23 C          59.4349   94.0643    0.9607 C.3     1  UNL1        0.0608
     24 C          60.3706   88.4337    8.3674 C.3     1  UNL1        0.2042
     25 F          60.2039   89.7898    8.9862 F       1  UNL1       -0.2306
     26 C          60.1563   87.2676    7.4483 C.3     1  UNL1        0.0590
     27 C          60.9810   86.0250    7.6086 C.3     1  UNL1        0.0756
     28 N          62.0199   85.9483    8.6879 N.3     1  UNL1       -0.2688
     29 C          62.2341   87.1143    9.6069 C.3     1  UNL1        0.0756
     30 C          61.4094   88.3570    9.4467 C.3     1  UNL1        0.0590
     31 C          62.8445   84.7056    8.8481 C.3     1  UNL1        0.0993
     32 C          63.1873   84.2047   10.2198 C.ar    1  UNL1       -0.0018
     33 C          64.2174   83.1274   10.3892 C.ar    1  UNL1        0.0179
     34 C          64.5602   82.6266   11.7609 C.ar    1  UNL1        0.1000
     35 N          63.8730   83.2029   12.9633 N.ar    1  UNL1       -0.2296
     36 C          62.8429   84.2802   12.7939 C.ar    1  UNL1        0.1251
     37 N          62.1558   84.8565   13.9962 N.pl3   1  UNL1       -0.3426
     38 C          62.5002   84.7810   11.4222 C.ar    1  UNL1        0.0310
     39 H          62.3808   84.5277   14.8965 H       1  UNL1        0.1437
     40 H          61.4797   85.5635   13.8851 H       1  UNL1        0.1437
@<TRIPOS>BOND
     1     9    10    1
     2    10    11   ar
     3    11    12   ar
     4    12    13   ar
     5    13    14   ar
     6    14    15   ar
     7    15    16   ar
     8    16    17   ar
     9    17    18   ar
    10    12    19    1
    11    19    20    1
    12    20    21    1
    13    21     1    1
    14     1     2    1
    15     2     3    1
    16     3     4    1
    17     4     5   am
    18     5     6    2
    19     5    24    1
    20    24    25    1
    21    24    26    1
    22    26    27    1
    23    27    28    1
    24    28    31    1
    25    31    32    1
    26    32    33   ar
    27    33    34   ar
    28    34    35   ar
    29    35    36   ar
    30    36    37    1
    31    36    38   ar
    32    28    29    1
    33    29    30    1
    34     4     7    1
    35     7     8    1
    36    21    22    1
    37    22    23    1
    38    18    10   ar
    39     8     1    1
    40    23    11    1
    41    18    13   ar
    42    30    24    1
    43    38    32   ar
    44    37    39    1
    45    37    40    1
@<TRIPOS>MOLECULE
*****
 40 45 0 0 0
SMALL
GASTEIGER

@<TRIPOS>ATOM
      1 C          60.2800   91.6844    3.9995 C.3     1  UNL1        0.0609
      2 C          61.3604   91.2513    4.9456 C.3     1  UNL1        0.0375
      3 C          61.0260   90.3720    6.1140 C.3     1  UNL1        0.0949
      4 N          59.6113   89.9259    6.3362 N.am    1  UNL1       -0.2773
      5 C          59.2769   89.0466    7.5047 C.2     1  UNL1        0.2553
      6 O          57.8622   88.6005    7.7269 O.2     1  UNL1       -0.2720
      7 C          58.5309   90.3590    5.3901 C.3     1  UNL1        0.0949
      8 C          58.8652   91.2382    4.2218 C.3     1  UNL1        0.0375
      9 C          59.1949   95.9777   -1.6512 C.3     1  UNL1        0.1301
     10 N          60.4821   95.5007   -1.0466 N.ar    1  UNL1       -0.3289
     11 C          60.6159   94.5977    0.1436 C.ar    1  UNL1        0.0346
     12 C          62.0780   94.3819    0.3997 C.ar    1  UNL1       -0.0077
     13 C          62.8479   95.1514   -0.6324 C.ar    1  UNL1        0.0129
     14 C          64.3196   95.3118   -0.8737 C.ar    1  UNL1        0.0012
     15 C          64.8050   96.1636   -2.0089 C.ar    1  UNL1        0.0001
     16 C          63.8187   96.8551   -2.9028 C.ar    1  UNL1        0.0015
     17 C          62.3470   96.6947   -2.6615 C.ar    1  UNL1        0.0172
     18 C          61.8616   95.8428   -1.5263 C.ar    1  UNL1        0.0594
     19 C          62.7282   93.5598    1.4728 C.3     1  UNL1        0.0448
     20 C          62.0768   92.7506    2.5549 C.3     1  UNL1        0.0768
     21 N          60.6143   92.5636    2.8312 N.3     1  UNL1       -0.2732
     22 C          59.4421   93.1397    2.0935 C.3     1  UNL1        0.0783
     23 C          59.4428   94.0449    0.8975 C.3     1  UNL1        0.0608
     24 C          60.3573   88.6135    8.4508 C.3     1  UNL1        0.2042
     25 F          60.1547   90.0252    8.9154 F       1  UNL1       -0.2306
     26 C          60.1847   87.3521    7.6574 C.3     1  UNL1        0.0590
     27 C          61.0222   86.1480    7.9717 C.3     1  UNL1        0.0756
     28 N          62.0322   86.2052    9.0792 N.3     1  UNL1       -0.2688
     29 C          62.2048   87.4665    9.8724 C.3     1  UNL1        0.0756
     30 C          61.3674   88.6707    9.5583 C.3     1  UNL1        0.0590
     31 C          62.8697   85.0010    9.3934 C.3     1  UNL1        0.0993
     32 C          62.8162   84.3864   10.7606 C.ar    1  UNL1       -0.0018
     33 C          62.6980   85.2623   11.9726 C.ar    1  UNL1        0.0179
     34 C          62.6446   84.6476   13.3398 C.ar    1  UNL1        0.1000
     35 N          62.7093   83.1571   13.4951 N.ar    1  UNL1       -0.2296
     36 C          62.8276   82.2812   12.2831 C.ar    1  UNL1        0.1251
     37 N          62.8924   80.7907   12.4385 N.pl3   1  UNL1       -0.3426
     38 C          62.8810   82.8959   10.9160 C.ar    1  UNL1        0.0310
     39 H          62.8573   80.3873   13.3359 H       1  UNL1        0.1437
     40 H          62.9700   80.2158   11.6431 H       1  UNL1        0.1437
@<TRIPOS>BOND
     1     9    10    1
     2    10    11   ar
     3    11    12   ar
     4    12    13   ar
     5    13    14   ar
     6    14    15   ar
     7    15    16   ar
     8    16    17   ar
     9    17    18   ar
    10    12    19    1
    11    19    20    1
    12    20    21    1
    13    21     1    1
    14     1     2    1
    15     2     3    1
    16     3     4    1
    17     4     5   am
    18     5     6    2
    19     5    24    1
    20    24    25    1
    21    24    26    1
    22    26    27    1
    23    27    28    1
    24    28    31    1
    25    31    32    1
    26    32    33   ar
    27    33    34   ar
    28    34    35   ar
    29    35    36   ar
    30    36    37    1
    31    36    38   ar
    32    28    29    1
    33    29    30    1
    34     4     7    1
    35     7     8    1
    36    21    22    1
    37    22    23    1
    38    18    10   ar
    39     8     1    1
    40    23    11    1
    41    18    13   ar
    42    30    24    1
    43    38    32   ar
    44    37    39    1
    45    37    40    1
@<TRIPOS>MOLECULE
*****
 40 45 0 0 0
SMALL
GASTEIGER

@<TRIPOS>ATOM
      1 C          60.2885   91.8828    3.6210 C.3     1  UNL1        0.0609
      2 C          61.2576   90.9926    4.3409 C.3     1  UNL1        0.0375
      3 C          60.7938   90.1619    5.5007 C.3     1  UNL1        0.0949
      4 N          59.3611   90.2215    5.9404 N.am    1  UNL1       -0.2773
      5 C          58.8973   89.3908    7.1002 C.2     1  UNL1        0.2553
      6 O          57.4645   89.4504    7.5400 O.2     1  UNL1       -0.2720
      7 C          58.3919   91.1117    5.2205 C.3     1  UNL1        0.0949
      8 C          58.8556   91.9423    4.0608 C.3     1  UNL1        0.0375
      9 C          64.7406   95.7902   -0.4351 C.3     1  UNL1        0.1301
     10 N          63.3068   95.4198   -0.6741 N.ar    1  UNL1       -0.3289
     11 C          62.4465   94.5928    0.2348 C.ar    1  UNL1        0.0346
     12 C          61.0896   94.4733   -0.3934 C.ar    1  UNL1       -0.0077
     13 C          61.1113   95.2264   -1.6905 C.ar    1  UNL1        0.0129
     14 C          60.0604   95.4550   -2.7361 C.ar    1  UNL1        0.0012
     15 C          60.3798   96.2686   -3.9551 C.ar    1  UNL1        0.0001
     16 C          61.7501   96.8535   -4.1286 C.ar    1  UNL1        0.0015
     17 C          62.8010   96.6249   -3.0830 C.ar    1  UNL1        0.0172
     18 C          62.4816   95.8113   -1.8640 C.ar    1  UNL1        0.0594
     19 C          59.8810   93.7493    0.1217 C.3     1  UNL1        0.0448
     20 C          59.7309   92.9661    1.3921 C.3     1  UNL1        0.0768
     21 N          60.7522   92.7134    2.4613 N.3     1  UNL1       -0.2732
     22 C          62.1759   93.1815    2.5240 C.3     1  UNL1        0.0783
     23 C          62.9300   94.0179    1.5331 C.3     1  UNL1        0.0608
     24 C          59.8665   88.5006    7.8201 C.3     1  UNL1        0.2042
     25 F          59.5206   87.6211    6.6553 F       1  UNL1       -0.2306
     26 C          59.8757   89.6894    8.7349 C.3     1  UNL1        0.0590
     27 C          60.7340   89.6824    9.9651 C.3     1  UNL1        0.0756
     28 N          61.5830   88.4867   10.2805 N.3     1  UNL1       -0.2688
     29 C          61.5737   87.2980    9.3657 C.3     1  UNL1        0.0756
     30 C          60.7155   87.3049    8.1355 C.3     1  UNL1        0.0590
     31 C          62.4412   88.4798   11.5107 C.3     1  UNL1        0.0993
     32 C          63.2009   89.7126   11.9021 C.ar    1  UNL1       -0.0018
     33 C          63.5538   89.9511   13.3404 C.ar    1  UNL1        0.0179
     34 C          64.3134   91.1839   13.7317 C.ar    1  UNL1        0.1000
     35 N          64.7202   92.1782   12.6848 N.ar    1  UNL1       -0.2296
     36 C          64.3672   91.9397   11.2465 C.ar    1  UNL1        0.1251
     37 N          64.7740   92.9340   10.1997 N.pl3   1  UNL1       -0.3426
     38 C          63.6076   90.7069   10.8552 C.ar    1  UNL1        0.0310
     39 H          65.2725   93.7431   10.4566 H       1  UNL1        0.1437
     40 H          64.5423   92.7775    9.2557 H       1  UNL1        0.1437
@<TRIPOS>BOND
     1     9    10    1
     2    10    11   ar
     3    11    12   ar
     4    12    13   ar
     5    13    14   ar
     6    14    15   ar
     7    15    16   ar
     8    16    17   ar
     9    17    18   ar
    10    12    19    1
    11    19    20    1
    12    20    21    1
    13    21     1    1
    14     1     2    1
    15     2     3    1
    16     3     4    1
    17     4     5   am
    18     5     6    2
    19     5    24    1
    20    24    25    1
    21    24    26    1
    22    26    27    1
    23    27    28    1
    24    28    31    1
    25    31    32    1
    26    32    33   ar
    27    33    34   ar
    28    34    35   ar
    29    35    36   ar
    30    36    37    1
    31    36    38   ar
    32    28    29    1
    33    29    30    1
    34     4     7    1
    35     7     8    1
    36    21    22    1
    37    22    23    1
    38    18    10   ar
    39     8     1    1
    40    23    11    1
    41    18    13   ar
    42    30    24    1
    43    38    32   ar
    44    37    39    1
    45    37    40    1
@<TRIPOS>MOLECULE
*****
 40 45 0 0 0
SMALL
GASTEIGER

@<TRIPOS>ATOM
      1 C          60.0733   91.6469    4.0133 C.3     1  UNL1        0.0609
      2 C          61.2035   91.2331    4.9084 C.3     1  UNL1        0.0375
      3 C          60.9367   90.3593    6.0981 C.3     1  UNL1        0.0949
      4 N          59.5398   89.8994    6.3926 N.am    1  UNL1       -0.2773
      5 C          59.2730   89.0256    7.5824 C.2     1  UNL1        0.2553
      6 O          57.8760   88.5657    7.8770 O.2     1  UNL1       -0.2720
      7 C          58.4095   90.3132    5.4975 C.3     1  UNL1        0.0949
      8 C          58.6762   91.1869    4.3079 C.3     1  UNL1        0.0375
      9 C          63.7754   95.8007   -0.5233 C.3     1  UNL1        0.1301
     10 N          62.3340   95.3875   -0.5655 N.ar    1  UNL1       -0.3289
     11 C          61.6388   94.5100    0.4328 C.ar    1  UNL1        0.0346
     12 C          60.2100   94.3594    0.0018 C.ar    1  UNL1       -0.0077
     13 C          60.0221   95.1438   -1.2628 C.ar    1  UNL1        0.0129
     14 C          58.8253   95.3617   -2.1404 C.ar    1  UNL1        0.0012
     15 C          58.9413   96.2149   -3.3686 C.ar    1  UNL1        0.0001
     16 C          60.2541   96.8502   -3.7193 C.ar    1  UNL1        0.0015
     17 C          61.4508   96.6324   -2.8417 C.ar    1  UNL1        0.0172
     18 C          61.3349   95.7792   -1.6135 C.ar    1  UNL1        0.0594
     19 C          59.1105   93.5824    0.6633 C.3     1  UNL1        0.0448
     20 C          59.1684   92.7640    1.9191 C.3     1  UNL1        0.0768
     21 N          60.3400   92.5206    2.8236 N.3     1  UNL1       -0.2732
     22 C          61.7431   93.0354    2.6956 C.3     1  UNL1        0.0783
     23 C          62.3211   93.9207    1.6317 C.3     1  UNL1        0.0608
     24 C          60.4033   88.6118    8.4775 C.3     1  UNL1        0.2042
     25 F          60.2601   90.0481    8.8857 F       1  UNL1       -0.2306
     26 C          60.1539   87.3192    7.7584 C.3     1  UNL1        0.0590
     27 C          60.9850   86.1117    8.0763 C.3     1  UNL1        0.0756
     28 N          62.0656   86.1967    9.1132 N.3     1  UNL1       -0.2688
     29 C          62.3150   87.4893    9.8322 C.3     1  UNL1        0.0756
     30 C          61.4838   88.6968    9.5144 C.3     1  UNL1        0.0590
     31 C          62.8967   84.9891    9.4309 C.3     1  UNL1        0.0993
     32 C          62.8441   84.3820   10.8016 C.ar    1  UNL1       -0.0018
     33 C          62.7088   85.2636   12.0077 C.ar    1  UNL1        0.0179
     34 C          62.6562   84.6565   13.3783 C.ar    1  UNL1        0.1000
     35 N          62.7389   83.1679   13.5429 N.ar    1  UNL1       -0.2296
     36 C          62.8742   82.2863   12.3368 C.ar    1  UNL1        0.1251
     37 N          62.9568   80.7976   12.5014 N.pl3   1  UNL1       -0.3426
     38 C          62.9268   82.8934   10.9662 C.ar    1  UNL1        0.0310
     39 H          62.9223   80.3992   13.4010 H       1  UNL1        0.1437
     40 H          63.0456   80.2190   11.7099 H       1  UNL1        0.1437
@<TRIPOS>BOND
     1     9    10    1
     2    10    11   ar
     3    11    12   ar
     4    12    13   ar
     5    13    14   ar
     6    14    15   ar
     7    15    16   ar
     8    16    17   ar
     9    17    18   ar
    10    12    19    1
    11    19    20    1
    12    20    21    1
    13    21     1    1
    14     1     2    1
    15     2     3    1
    16     3     4    1
    17     4     5   am
    18     5     6    2
    19     5    24    1
    20    24    25    1
    21    24    26    1
    22    26    27    1
    23    27    28    1
    24    28    31    1
    25    31    32    1
    26    32    33   ar
    27    33    34   ar
    28    34    35   ar
    29    35    36   ar
    30    36    37    1
    31    36    38   ar
    32    28    29    1
    33    29    30    1
    34     4     7    1
    35     7     8    1
    36    21    22    1
    37    22    23    1
    38    18    10   ar
    39     8     1    1
    40    23    11    1
    41    18    13   ar
    42    30    24    1
    43    38    32   ar
    44    37    39    1
    45    37    40    1
