@<TRIPOS>MOLECULE
*****
 34 36 0 0 0
SMALL
GASTEIGER

@<TRIPOS>ATOM
      1 C          59.3826   89.0511    7.4327 C.ar    1  UNL1       -0.0024
      2 C          59.0398   87.5911    7.4036 C.ar    1  UNL1       -0.0026
      3 C          59.4745   86.6961    8.5262 C.ar    1  UNL1       -0.0001
      4 C          60.2518   87.2611    9.6779 C.ar    1  UNL1        0.0045
      5 C          60.5946   88.7212    9.7069 C.ar    1  UNL1        0.0534
      6 C          60.1599   89.6161    8.5844 C.ar    1  UNL1        0.0019
      7 C          61.3719   89.2863   10.8586 C.2     1  UNL1        0.2495
      8 O          60.7014   89.5000   12.1832 O.2     1  UNL1       -0.2698
      9 N          62.8200   89.6377   10.6857 N.am    1  UNL1       -0.2804
     10 H          63.2601   89.4974    9.8163 H       1  UNL1        0.1552
     11 C          63.5973   90.2028   11.8374 C.ar    1  UNL1        0.0505
     12 C          63.7817   89.3936   13.0868 C.ar    1  UNL1        0.0144
     13 C          64.5590   89.9586   14.2385 C.ar    1  UNL1       -0.0016
     14 C          65.1521   91.3329   14.1407 C.ar    1  UNL1       -0.0061
     15 C          64.9678   92.1422   12.8912 C.ar    1  UNL1       -0.0016
     16 C          64.1904   91.5771   11.7395 C.ar    1  UNL1        0.0144
     17 C          65.9294   91.8980   15.2924 C.3     1  UNL1        0.0992
     18 N          67.3307   92.3899   15.0820 N.3     1  UNL1       -0.2665
     19 C          67.9287   93.3814   16.0357 C.3     1  UNL1        0.0899
     20 C          68.1341   91.8903   13.9180 C.3     1  UNL1        0.0899
     21 C          58.9479   89.9461    6.3101 C.3     1  UNL1        0.1166
     22 C          59.6126   91.6962    4.5087 C.2     1  UNL1        0.2461
     23 O          58.2384   92.2930    4.5814 O.2     1  UNL1       -0.2701
     24 N          59.9674   90.5227    5.3730 N.am    1  UNL1       -0.2969
     25 H          60.8693   90.1310    5.3253 H       1  UNL1        0.1501
     26 C          62.6710   93.4261    1.6973 C.ar    1  UNL1        0.1347
     27 C          63.0380   92.2787    2.5910 C.ar    1  UNL1        0.0367
     28 C          62.0186   91.7020    3.5281 C.ar    1  UNL1        0.0076
     29 C          60.6321   92.2728    3.5715 C.ar    1  UNL1        0.0532
     30 C          60.2651   93.4202    2.6778 C.ar    1  UNL1        0.0032
     31 C          61.2846   93.9968    1.7407 C.ar    1  UNL1        0.0123
     32 C          60.9175   95.1443    0.8470 C.3     1  UNL1        0.0342
     33 C          65.1363   93.6300    0.9033 C.3     1  UNL1        0.2525
     34 O          63.6905   94.0027    0.7602 O.3     1  UNL1       -0.4717
@<TRIPOS>BOND
     1    33    34    1
     2    34    26    1
     3    26    27   ar
     4    27    28   ar
     5    28    29   ar
     6    29    22    1
     7    22    23    2
     8    22    24   am
     9    24    21    1
    10    21     1    1
    11     1     2   ar
    12     2     3   ar
    13     3     4   ar
    14     4     5   ar
    15     5     7    1
    16     7     8    2
    17     7     9   am
    18     9    11    1
    19    11    12   ar
    20    12    13   ar
    21    13    14   ar
    22    14    17    1
    23    17    18    1
    24    18    19    1
    25    18    20    1
    26    14    15   ar
    27    15    16   ar
    28     5     6   ar
    29    29    30   ar
    30    30    31   ar
    31    31    32    1
    32    31    26   ar
    33     6     1   ar
    34    16    11   ar
    35    24    25    1
    36     9    10    1
@<TRIPOS>MOLECULE
*****
 34 36 0 0 0
SMALL
GASTEIGER

@<TRIPOS>ATOM
      1 C          59.8728   88.5180    8.1633 C.ar    1  UNL1       -0.0024
      2 C          59.6426   87.0443    8.3219 C.ar    1  UNL1       -0.0026
      3 C          60.3839   86.2787    9.3777 C.ar    1  UNL1       -0.0001
      4 C          61.3553   86.9869   10.2747 C.ar    1  UNL1        0.0045
      5 C          61.5855   88.4607   10.1160 C.ar    1  UNL1        0.0534
      6 C          60.8443   89.2262    9.0603 C.ar    1  UNL1        0.0019
      7 C          62.5570   89.1689   11.0130 C.2     1  UNL1        0.2495
      8 O          63.0752   88.4869   12.2444 O.2     1  UNL1       -0.2698
      9 N          63.0103   90.5592   10.6786 N.am    1  UNL1       -0.2804
     10 H          62.6702   91.0068    9.8704 H       1  UNL1        0.1552
     11 C          63.9818   91.2674   11.5757 C.ar    1  UNL1        0.0505
     12 C          64.9020   92.3087   11.0111 C.ar    1  UNL1        0.0144
     13 C          65.8735   93.0169   11.9081 C.ar    1  UNL1       -0.0016
     14 C          65.9247   92.6838   13.3697 C.ar    1  UNL1       -0.0061
     15 C          65.0044   91.6425   13.9344 C.ar    1  UNL1       -0.0016
     16 C          64.0330   90.9343   13.0374 C.ar    1  UNL1        0.0144
     17 C          66.8962   93.3921   14.2668 C.3     1  UNL1        0.0992
     18 N          68.0546   92.6440   14.8570 N.3     1  UNL1       -0.2665
     19 C          68.1035   92.3803   16.3328 C.3     1  UNL1        0.0899
     20 C          69.1640   92.1595   13.9714 C.3     1  UNL1        0.0899
     21 C          59.1315   89.2835    7.1075 C.3     1  UNL1        0.1166
     22 C          59.2117   91.0600    5.2134 C.2     1  UNL1        0.2461
     23 O          57.7764   91.4064    5.4776 O.2     1  UNL1       -0.2701
     24 N          59.8892   89.9985    6.0284 N.am    1  UNL1       -0.2969
     25 H          60.8313   89.7712    5.8550 H       1  UNL1        0.1501
     26 C          61.4849   93.2051    1.9760 C.ar    1  UNL1        0.1347
     27 C          60.0281   93.4937    2.1868 C.ar    1  UNL1        0.0367
     28 C          59.2704   92.7786    3.2659 C.ar    1  UNL1        0.0076
     29 C          59.9694   91.7750    4.1343 C.ar    1  UNL1        0.0532
     30 C          61.4262   91.4864    3.9235 C.ar    1  UNL1        0.0032
     31 C          62.1839   92.2015    2.8443 C.ar    1  UNL1        0.0123
     32 C          63.6408   91.9128    2.6335 C.3     1  UNL1        0.0342
     33 C          61.9026   93.6791   -0.5441 C.3     1  UNL1        0.2525
     34 O          62.2426   93.9201    0.8968 O.3     1  UNL1       -0.4717
@<TRIPOS>BOND
     1    33    34    1
     2    34    26    1
     3    26    27   ar
     4    27    28   ar
     5    28    29   ar
     6    29    22    1
     7    22    23    2
     8    22    24   am
     9    24    21    1
    10    21     1    1
    11     1     2   ar
    12     2     3   ar
    13     3     4   ar
    14     4     5   ar
    15     5     7    1
    16     7     8    2
    17     7     9   am
    18     9    11    1
    19    11    12   ar
    20    12    13   ar
    21    13    14   ar
    22    14    17    1
    23    17    18    1
    24    18    19    1
    25    18    20    1
    26    14    15   ar
    27    15    16   ar
    28     5     6   ar
    29    29    30   ar
    30    30    31   ar
    31    31    32    1
    32    31    26   ar
    33     6     1   ar
    34    16    11   ar
    35    24    25    1
    36     9    10    1
@<TRIPOS>MOLECULE
*****
 34 36 0 0 0
SMALL
GASTEIGER

@<TRIPOS>ATOM
      1 C          64.3745   83.6308   12.7879 C.ar    1  UNL1       -0.0024
      2 C          64.6161   82.2146   12.3569 C.ar    1  UNL1       -0.0026
      3 C          64.1526   81.7517   11.0075 C.ar    1  UNL1       -0.0001
      4 C          63.4475   82.7052   10.0890 C.ar    1  UNL1        0.0045
      5 C          63.2059   84.1216   10.5199 C.ar    1  UNL1        0.0534
      6 C          63.6694   84.5843   11.8693 C.ar    1  UNL1        0.0019
      7 C          62.5008   85.0751    9.6014 C.2     1  UNL1        0.2495
      8 O          62.9351   85.1981    8.1710 O.2     1  UNL1       -0.2698
      9 N          61.3614   85.9056   10.1134 N.am    1  UNL1       -0.2804
     10 H          61.0764   85.8249   11.0523 H       1  UNL1        0.1552
     11 C          60.6564   86.8591    9.1949 C.ar    1  UNL1        0.0505
     12 C          59.8400   86.3338    8.0514 C.ar    1  UNL1        0.0144
     13 C          59.1349   87.2873    7.1329 C.ar    1  UNL1       -0.0016
     14 C          59.2462   88.7661    7.3579 C.ar    1  UNL1       -0.0061
     15 C          60.0625   89.2915    8.5014 C.ar    1  UNL1       -0.0016
     16 C          60.7676   88.3380    9.4199 C.ar    1  UNL1        0.0144
     17 C          58.5411   89.7197    6.4394 C.3     1  UNL1        0.0992
     18 N          59.3350   90.6501    5.5710 N.3     1  UNL1       -0.2665
     19 C          60.8011   90.4124    5.3612 C.3     1  UNL1        0.0899
     20 C          58.6627   91.8182    4.9126 C.3     1  UNL1        0.0899
     21 C          64.8380   84.0937   14.1373 C.3     1  UNL1        0.1166
     22 C          63.6932   86.1866   15.1665 C.2     1  UNL1        0.2461
     23 O          62.5073   85.3507   15.5470 O.2     1  UNL1       -0.2701
     24 N          64.8586   85.5581   14.4617 N.am    1  UNL1       -0.2969
     25 H          65.6370   86.1066   14.2119 H       1  UNL1        0.1501
     26 C          63.7550   90.5797   16.1395 C.ar    1  UNL1        0.1347
     27 C          63.1316   89.6081   17.0972 C.ar    1  UNL1        0.0367
     28 C          63.1110   88.1437   16.7729 C.ar    1  UNL1        0.0076
     29 C          63.7138   87.6509   15.4909 C.ar    1  UNL1        0.0532
     30 C          64.3373   88.6225   14.5331 C.ar    1  UNL1        0.0032
     31 C          64.3579   90.0869   14.8575 C.ar    1  UNL1        0.0123
     32 C          64.9814   91.0585   13.8997 C.3     1  UNL1        0.0342
     33 C          65.0511   92.6957   16.9093 C.3     1  UNL1        0.2525
     34 O          63.7756   92.0441   16.4639 O.3     1  UNL1       -0.4717
@<TRIPOS>BOND
     1    33    34    1
     2    34    26    1
     3    26    27   ar
     4    27    28   ar
     5    28    29   ar
     6    29    22    1
     7    22    23    2
     8    22    24   am
     9    24    21    1
    10    21     1    1
    11     1     2   ar
    12     2     3   ar
    13     3     4   ar
    14     4     5   ar
    15     5     7    1
    16     7     8    2
    17     7     9   am
    18     9    11    1
    19    11    12   ar
    20    12    13   ar
    21    13    14   ar
    22    14    17    1
    23    17    18    1
    24    18    19    1
    25    18    20    1
    26    14    15   ar
    27    15    16   ar
    28     5     6   ar
    29    29    30   ar
    30    30    31   ar
    31    31    32    1
    32    31    26   ar
    33     6     1   ar
    34    16    11   ar
    35    24    25    1
    36     9    10    1
@<TRIPOS>MOLECULE
*****
 34 36 0 0 0
SMALL
GASTEIGER

@<TRIPOS>ATOM
      1 C          59.9061   88.9081   10.0193 C.ar    1  UNL1       -0.0024
      2 C          59.8364   87.4156    9.8875 C.ar    1  UNL1       -0.0026
      3 C          59.7172   86.7872    8.5306 C.ar    1  UNL1       -0.0001
      4 C          59.6679   87.6515    7.3056 C.ar    1  UNL1        0.0045
      5 C          59.7376   89.1441    7.4375 C.ar    1  UNL1        0.0534
      6 C          59.8568   89.7724    8.7943 C.ar    1  UNL1        0.0019
      7 C          59.6883   90.0083    6.2125 C.2     1  UNL1        0.2495
      8 O          58.3747   90.2883    5.5446 O.2     1  UNL1       -0.2698
      9 N          60.9526   90.5926    5.6554 N.am    1  UNL1       -0.2804
     10 H          61.8147   90.4088    6.0937 H       1  UNL1        0.1552
     11 C          60.9032   91.4568    4.4304 C.ar    1  UNL1        0.0505
     12 C          59.6668   92.2472    4.1194 C.ar    1  UNL1        0.0144
     13 C          59.6175   93.1114    2.8944 C.ar    1  UNL1       -0.0016
     14 C          60.8045   93.1853    1.9804 C.ar    1  UNL1       -0.0061
     15 C          62.0409   92.3950    2.2913 C.ar    1  UNL1       -0.0016
     16 C          62.0903   91.5307    3.5163 C.ar    1  UNL1        0.0144
     17 C          60.7551   94.0496    0.7554 C.3     1  UNL1        0.0992
     18 N          60.6687   93.4203   -0.6035 N.3     1  UNL1       -0.2665
     19 C          61.8275   93.5192   -1.5509 C.3     1  UNL1        0.0899
     20 C          59.4236   92.6921   -1.0150 C.3     1  UNL1        0.0899
     21 C          60.0252   89.5365   11.3762 C.3     1  UNL1        0.1166
     22 C          62.5069   89.7243   12.1219 C.2     1  UNL1        0.2461
     23 O          62.5969   88.2290   12.1988 O.2     1  UNL1       -0.2701
     24 N          61.2211   90.3781   11.7106 N.am    1  UNL1       -0.2969
     25 H          61.1620   91.3595   11.6601 H       1  UNL1        0.1501
     26 C          66.0943   92.2490   13.1251 C.ar    1  UNL1        0.1347
     27 C          65.6142   91.2094   14.0940 C.ar    1  UNL1        0.0367
     28 C          64.4184   90.3679   13.7596 C.ar    1  UNL1        0.0076
     29 C          63.7027   90.5659   12.4563 C.ar    1  UNL1        0.0532
     30 C          64.1828   91.6054   11.4874 C.ar    1  UNL1        0.0032
     31 C          65.3786   92.4470   11.8218 C.ar    1  UNL1        0.0123
     32 C          65.8588   93.4866   10.8529 C.3     1  UNL1        0.0342
     33 C          67.5972   93.4228   14.8896 C.3     1  UNL1        0.2525
     34 O          67.2901   93.0905   13.4595 O.3     1  UNL1       -0.4717
@<TRIPOS>BOND
     1    33    34    1
     2    34    26    1
     3    26    27   ar
     4    27    28   ar
     5    28    29   ar
     6    29    22    1
     7    22    23    2
     8    22    24   am
     9    24    21    1
    10    21     1    1
    11     1     2   ar
    12     2     3   ar
    13     3     4   ar
    14     4     5   ar
    15     5     7    1
    16     7     8    2
    17     7     9   am
    18     9    11    1
    19    11    12   ar
    20    12    13   ar
    21    13    14   ar
    22    14    17    1
    23    17    18    1
    24    18    19    1
    25    18    20    1
    26    14    15   ar
    27    15    16   ar
    28     5     6   ar
    29    29    30   ar
    30    30    31   ar
    31    31    32    1
    32    31    26   ar
    33     6     1   ar
    34    16    11   ar
    35    24    25    1
    36     9    10    1
@<TRIPOS>MOLECULE
*****
 34 36 0 0 0
SMALL
GASTEIGER

@<TRIPOS>ATOM
      1 C          59.2859   90.1428    6.2443 C.ar    1  UNL1       -0.0024
      2 C          57.8375   90.4757    6.0411 C.ar    1  UNL1       -0.0026
      3 C          57.4298   91.4091    4.9399 C.ar    1  UNL1       -0.0001
      4 C          58.4705   92.0095    4.0418 C.ar    1  UNL1        0.0045
      5 C          59.9189   91.6765    4.2451 C.ar    1  UNL1        0.0534
      6 C          60.3266   90.7432    5.3463 C.ar    1  UNL1        0.0019
      7 C          60.9596   92.2769    3.3470 C.2     1  UNL1        0.2495
      8 O          62.3945   91.8600    3.4785 O.2     1  UNL1       -0.2698
      9 N          60.5654   93.2942    2.3176 N.am    1  UNL1       -0.2804
     10 H          59.6236   93.5678    2.2313 H       1  UNL1        0.1552
     11 C          61.6061   93.8946    1.4195 C.ar    1  UNL1        0.0505
     12 C          62.1072   95.2847    1.6770 C.ar    1  UNL1        0.0144
     13 C          63.1480   95.8851    0.7789 C.ar    1  UNL1       -0.0016
     14 C          63.6875   95.0954   -0.3765 C.ar    1  UNL1       -0.0061
     15 C          63.1864   93.7051   -0.6340 C.ar    1  UNL1       -0.0016
     16 C          62.1456   93.1047    0.2640 C.ar    1  UNL1        0.0144
     17 C          64.7282   95.6957   -1.2746 C.3     1  UNL1        0.0992
     18 N          64.3379   96.2366   -2.6181 N.3     1  UNL1       -0.2665
     19 C          62.9533   96.7699   -2.8385 C.3     1  UNL1        0.0899
     20 C          65.3321   96.2443   -3.7411 C.3     1  UNL1        0.0899
     21 C          59.6936   89.2095    7.3456 C.3     1  UNL1        0.1166
     22 C          61.2848   88.7218    9.3406 C.2     1  UNL1        0.2461
     23 O          61.1304   87.2488    9.1037 O.2     1  UNL1       -0.2701
     24 N          60.5664   89.7022    8.4616 N.am    1  UNL1       -0.2969
     25 H          60.6678   90.6690    8.6171 H       1  UNL1        0.1501
     26 C          63.9032   90.2000   12.6886 C.ar    1  UNL1        0.1347
     27 C          63.4827   91.1372   11.5956 C.ar    1  UNL1        0.0367
     28 C          62.6099   90.6445   10.4796 C.ar    1  UNL1        0.0076
     29 C          62.1576   89.2146   10.4566 C.ar    1  UNL1        0.0532
     30 C          62.5781   88.2773   11.5496 C.ar    1  UNL1        0.0032
     31 C          63.4509   88.7700   12.6656 C.ar    1  UNL1        0.0123
     32 C          63.8714   87.8327   13.7587 C.3     1  UNL1        0.0342
     33 C          65.5235   91.9848   13.6576 C.3     1  UNL1        0.2525
     34 O          64.7760   90.6927   13.8046 O.3     1  UNL1       -0.4717
@<TRIPOS>BOND
     1    33    34    1
     2    34    26    1
     3    26    27   ar
     4    27    28   ar
     5    28    29   ar
     6    29    22    1
     7    22    23    2
     8    22    24   am
     9    24    21    1
    10    21     1    1
    11     1     2   ar
    12     2     3   ar
    13     3     4   ar
    14     4     5   ar
    15     5     7    1
    16     7     8    2
    17     7     9   am
    18     9    11    1
    19    11    12   ar
    20    12    13   ar
    21    13    14   ar
    22    14    17    1
    23    17    18    1
    24    18    19    1
    25    18    20    1
    26    14    15   ar
    27    15    16   ar
    28     5     6   ar
    29    29    30   ar
    30    30    31   ar
    31    31    32    1
    32    31    26   ar
    33     6     1   ar
    34    16    11   ar
    35    24    25    1
    36     9    10    1
@<TRIPOS>MOLECULE
*****
 34 36 0 0 0
SMALL
GASTEIGER

@<TRIPOS>ATOM
      1 C          65.6181   90.9840   14.8818 C.ar    1  UNL1       -0.0024
      2 C          64.6626   91.7738   15.7262 C.ar    1  UNL1       -0.0026
      3 C          63.4282   91.1202   16.2732 C.ar    1  UNL1       -0.0001
      4 C          63.1494   89.6766   15.9757 C.ar    1  UNL1        0.0045
      5 C          64.1050   88.8868   15.1313 C.ar    1  UNL1        0.0534
      6 C          65.3393   89.5404   14.5844 C.ar    1  UNL1        0.0019
      7 C          63.8263   87.4432   14.8338 C.2     1  UNL1        0.2495
      8 O          63.5613   86.4838   15.9560 O.2     1  UNL1       -0.2698
      9 N          63.8125   86.9591   13.4141 N.am    1  UNL1       -0.2804
     10 H          63.9865   87.5888   12.6776 H       1  UNL1        0.1552
     11 C          63.5338   85.5156   13.1166 C.ar    1  UNL1        0.0505
     12 C          64.1451   84.4427   13.9682 C.ar    1  UNL1        0.0144
     13 C          63.8663   82.9992   13.6707 C.ar    1  UNL1       -0.0016
     14 C          62.9762   82.6285   12.5217 C.ar    1  UNL1       -0.0061
     15 C          62.3649   83.7014   11.6701 C.ar    1  UNL1       -0.0016
     16 C          62.6436   85.1449   11.9675 C.ar    1  UNL1        0.0144
     17 C          62.6975   81.1849   12.2242 C.3     1  UNL1        0.0992
     18 N          62.0582   80.3145   13.2652 N.3     1  UNL1       -0.2665
     19 C          60.8975   80.8295   14.0637 C.3     1  UNL1        0.0899
     20 C          62.5797   78.9292   13.5077 C.3     1  UNL1        0.0899
     21 C          66.8525   91.6377   14.3349 C.3     1  UNL1        0.1166
     22 C          66.5635   93.7929   12.9132 C.2     1  UNL1        0.2461
     23 O          66.3553   94.5913   14.1658 O.2     1  UNL1       -0.2701
     24 N          66.8121   92.3161   12.9977 N.am    1  UNL1       -0.2969
     25 H          66.9488   91.7921   12.1755 H       1  UNL1        0.1501
     26 C          66.4423   95.8283    8.9016 C.ar    1  UNL1        0.1347
     27 C          65.6739   96.3998   10.0561 C.ar    1  UNL1        0.0367
     28 C          65.7143   95.7213   11.3933 C.ar    1  UNL1        0.0076
     29 C          66.5231   94.4714   11.5760 C.ar    1  UNL1        0.0532
     30 C          67.2915   93.8999   10.4215 C.ar    1  UNL1        0.0032
     31 C          67.2511   94.5783    9.0843 C.ar    1  UNL1        0.0123
     32 C          68.0195   94.0067    7.9298 C.3     1  UNL1        0.0342
     33 C          65.0835   96.8558    6.9401 C.3     1  UNL1        0.2525
     34 O          66.4019   96.5067    7.5644 O.3     1  UNL1       -0.4717
@<TRIPOS>BOND
     1    33    34    1
     2    34    26    1
     3    26    27   ar
     4    27    28   ar
     5    28    29   ar
     6    29    22    1
     7    22    23    2
     8    22    24   am
     9    24    21    1
    10    21     1    1
    11     1     2   ar
    12     2     3   ar
    13     3     4   ar
    14     4     5   ar
    15     5     7    1
    16     7     8    2
    17     7     9   am
    18     9    11    1
    19    11    12   ar
    20    12    13   ar
    21    13    14   ar
    22    14    17    1
    23    17    18    1
    24    18    19    1
    25    18    20    1
    26    14    15   ar
    27    15    16   ar
    28     5     6   ar
    29    29    30   ar
    30    30    31   ar
    31    31    32    1
    32    31    26   ar
    33     6     1   ar
    34    16    11   ar
    35    24    25    1
    36     9    10    1
@<TRIPOS>MOLECULE
*****
 34 36 0 0 0
SMALL
GASTEIGER

@<TRIPOS>ATOM
      1 C          60.4608   88.3338    9.3180 C.ar    1  UNL1       -0.0024
      2 C          59.5158   87.1730    9.2216 C.ar    1  UNL1       -0.0026
      3 C          58.6199   87.0324    8.0267 C.ar    1  UNL1       -0.0001
      4 C          58.6690   88.0528    6.9283 C.ar    1  UNL1        0.0045
      5 C          59.6140   89.2138    7.0249 C.ar    1  UNL1        0.0534
      6 C          60.5099   89.3542    8.2197 C.ar    1  UNL1        0.0019
      7 C          59.6631   90.2342    5.9265 C.2     1  UNL1        0.2495
      8 O          58.3997   90.8926    5.4574 O.2     1  UNL1       -0.2698
      9 N          60.9758   90.5961    5.2972 N.am    1  UNL1       -0.2804
     10 H          61.8051   90.1640    5.6051 H       1  UNL1        0.1552
     11 C          61.0249   91.6165    4.1989 C.ar    1  UNL1        0.0505
     12 C          62.2443   91.7277    3.3324 C.ar    1  UNL1        0.0144
     13 C          62.2934   92.7481    2.2340 C.ar    1  UNL1       -0.0016
     14 C          61.1231   93.6573    2.0022 C.ar    1  UNL1       -0.0061
     15 C          59.9037   93.5462    2.8687 C.ar    1  UNL1       -0.0016
     16 C          59.8546   92.5258    3.9670 C.ar    1  UNL1        0.0144
     17 C          61.1722   94.6777    0.9038 C.3     1  UNL1        0.0992
     18 N          61.0593   94.2447   -0.5278 N.3     1  UNL1       -0.2665
     19 C          59.7082   94.0969   -1.1623 C.3     1  UNL1        0.0899
     20 C          62.2975   93.9594   -1.3250 C.3     1  UNL1        0.0899
     21 C          61.3568   88.4743   10.5129 C.3     1  UNL1        0.1166
     22 C          62.3931   86.0973   10.6727 C.2     1  UNL1        0.2461
     23 O          62.7077   86.1359    9.2066 O.2     1  UNL1       -0.2701
     24 N          61.7177   87.2665   11.3258 N.am    1  UNL1       -0.2969
     25 H          61.5112   87.2412   12.2881 H       1  UNL1        0.1501
     26 C          63.4758   82.4738   13.1116 C.ar    1  UNL1        0.1347
     27 C          63.7290   82.4858   11.6332 C.ar    1  UNL1        0.0367
     28 C          63.3681   83.6936   10.8202 C.ar    1  UNL1        0.0076
     29 C          62.7540   84.8895   11.4857 C.ar    1  UNL1        0.0532
     30 C          62.5008   84.8775   12.9640 C.ar    1  UNL1        0.0032
     31 C          62.8617   83.6696   13.7770 C.ar    1  UNL1        0.0123
     32 C          62.6085   83.6577   15.2555 C.3     1  UNL1        0.0342
     33 C          62.9613   80.0485   13.8882 C.3     1  UNL1        0.2525
     34 O          63.8367   81.2660   13.9245 O.3     1  UNL1       -0.4717
@<TRIPOS>BOND
     1    33    34    1
     2    34    26    1
     3    26    27   ar
     4    27    28   ar
     5    28    29   ar
     6    29    22    1
     7    22    23    2
     8    22    24   am
     9    24    21    1
    10    21     1    1
    11     1     2   ar
    12     2     3   ar
    13     3     4   ar
    14     4     5   ar
    15     5     7    1
    16     7     8    2
    17     7     9   am
    18     9    11    1
    19    11    12   ar
    20    12    13   ar
    21    13    14   ar
    22    14    17    1
    23    17    18    1
    24    18    19    1
    25    18    20    1
    26    14    15   ar
    27    15    16   ar
    28     5     6   ar
    29    29    30   ar
    30    30    31   ar
    31    31    32    1
    32    31    26   ar
    33     6     1   ar
    34    16    11   ar
    35    24    25    1
    36     9    10    1
@<TRIPOS>MOLECULE
*****
 34 36 0 0 0
SMALL
GASTEIGER

@<TRIPOS>ATOM
      1 C          64.9022   90.2040   15.3253 C.ar    1  UNL1       -0.0024
      2 C          63.9632   90.6154   16.4202 C.ar    1  UNL1       -0.0026
      3 C          62.8681   89.6879   16.8571 C.ar    1  UNL1       -0.0001
      4 C          62.7122   88.3490   16.1989 C.ar    1  UNL1        0.0045
      5 C          63.6513   87.9376   15.1039 C.ar    1  UNL1        0.0534
      6 C          64.7462   88.8651   14.6671 C.ar    1  UNL1        0.0019
      7 C          63.4953   86.5988   14.4458 C.2     1  UNL1        0.2495
      8 O          63.3995   86.5041   12.9519 O.2     1  UNL1       -0.2698
      9 N          63.4353   85.3546   15.2816 N.am    1  UNL1       -0.2804
     10 H          63.4982   85.4168   16.2621 H       1  UNL1        0.1552
     11 C          63.2793   84.0158   14.6235 C.ar    1  UNL1        0.0505
     12 C          62.0631   83.1820   14.8984 C.ar    1  UNL1        0.0144
     13 C          61.9072   81.8432   14.2402 C.ar    1  UNL1       -0.0016
     14 C          62.9674   81.3381   13.3072 C.ar    1  UNL1       -0.0061
     15 C          64.1837   82.1719   13.0322 C.ar    1  UNL1       -0.0016
     16 C          64.3397   83.5107   13.6904 C.ar    1  UNL1        0.0144
     17 C          62.8115   79.9992   12.6490 C.3     1  UNL1        0.0992
     18 N          62.8740   79.8863   11.1546 N.3     1  UNL1       -0.2665
     19 C          63.0422   81.1184   10.3157 C.3     1  UNL1        0.0899
     20 C          62.7682   78.5413   10.4991 C.3     1  UNL1        0.0899
     21 C          65.9972   91.1314   14.8884 C.3     1  UNL1        0.1166
     22 C          67.0727   92.6245   13.0543 C.2     1  UNL1        0.2461
     23 O          68.3163   92.7477   13.8839 O.2     1  UNL1       -0.2701
     24 N          65.9131   91.8164   13.5566 N.am    1  UNL1       -0.2969
     25 H          65.0969   91.7355   13.0121 H       1  UNL1        0.1501
     26 C          66.8204   94.6793    9.0588 C.ar    1  UNL1        0.1347
     27 C          65.9963   95.1744   10.2102 C.ar    1  UNL1        0.0367
     28 C          66.0804   94.4895   11.5420 C.ar    1  UNL1        0.0076
     29 C          66.9886   93.3095   11.7225 C.ar    1  UNL1        0.0532
     30 C          67.8127   92.8144   10.5711 C.ar    1  UNL1        0.0032
     31 C          67.7286   93.4993    9.2393 C.ar    1  UNL1        0.0123
     32 C          68.5528   93.0041    8.0879 C.3     1  UNL1        0.0342
     33 C          66.9011   96.8525    7.6372 C.3     1  UNL1        0.2525
     34 O          66.7363   95.3643    7.7270 O.3     1  UNL1       -0.4717
@<TRIPOS>BOND
     1    33    34    1
     2    34    26    1
     3    26    27   ar
     4    27    28   ar
     5    28    29   ar
     6    29    22    1
     7    22    23    2
     8    22    24   am
     9    24    21    1
    10    21     1    1
    11     1     2   ar
    12     2     3   ar
    13     3     4   ar
    14     4     5   ar
    15     5     7    1
    16     7     8    2
    17     7     9   am
    18     9    11    1
    19    11    12   ar
    20    12    13   ar
    21    13    14   ar
    22    14    17    1
    23    17    18    1
    24    18    19    1
    25    18    20    1
    26    14    15   ar
    27    15    16   ar
    28     5     6   ar
    29    29    30   ar
    30    30    31   ar
    31    31    32    1
    32    31    26   ar
    33     6     1   ar
    34    16    11   ar
    35    24    25    1
    36     9    10    1
