@<TRIPOS>MOLECULE
*****
 23 25 0 0 0
SMALL
GASTEIGER

@<TRIPOS>ATOM
      1 O          63.3705   90.8857   10.8253 O.2     1  UNL1       -0.2831
      2 C          63.9797   90.7721   12.1913 C.ar    1  UNL1        0.2351
      3 C          63.6325   89.6093   13.0730 C.ar    1  UNL1        0.2081
      4 O          62.6762   88.5600   12.5887 O.3     1  UNL1       -0.5007
      5 C          64.2417   89.4958   14.4391 C.ar    1  UNL1        0.1819
      6 O          65.1979   90.5450   14.9234 O.2     1  UNL1       -0.4502
      7 C          65.5451   91.7078   14.0417 C.ar    1  UNL1        0.1487
      8 C          66.5014   92.7570   14.5261 C.ar    1  UNL1        0.0407
      9 C          66.8486   93.9198   13.6444 C.ar    1  UNL1        0.0397
     10 C          66.2394   94.0333   12.2784 C.ar    1  UNL1        0.1340
     11 O          66.5866   95.1962   11.3967 O.3     1  UNL1       -0.5055
     12 C          65.2832   92.9841   11.7940 C.ar    1  UNL1        0.0430
     13 C          64.9360   91.8214   12.6757 C.ar    1  UNL1        0.0796
     14 H          62.2957   88.6310   11.7354 H       1  UNL1        0.2924
     15 H          67.1840   95.8516   11.6992 H       1  UNL1        0.2922
     16 C          63.8945   88.3329   15.3208 C.ar    1  UNL1        0.0407
     17 C          63.1018   88.5531   16.5750 C.ar    1  UNL1        0.0033
     18 C          62.7547   87.3903   17.4566 C.ar    1  UNL1        0.0032
     19 C          63.2002   86.0073   17.0840 C.ar    1  UNL1        0.0366
     20 C          63.9928   85.7871   15.8297 C.ar    1  UNL1        0.1338
     21 O          64.4382   84.4041   15.4571 O.3     1  UNL1       -0.5055
     22 C          64.3399   86.9499   14.9481 C.ar    1  UNL1        0.0398
     23 H          64.2214   83.6777   16.0078 H       1  UNL1        0.2922
@<TRIPOS>BOND
     1     1     2    2
     2     2     3   ar
     3     3     4    1
     4     3     5   ar
     5     5    16    1
     6    16    17   ar
     7    17    18   ar
     8    18    19   ar
     9    19    20   ar
    10    20    21    1
    11    20    22   ar
    12     5     6   ar
    13     6     7   ar
    14     7     8   ar
    15     8     9   ar
    16     9    10   ar
    17    10    11    1
    18    10    12   ar
    19    12    13   ar
    20    13     2   ar
    21    22    16   ar
    22    13     7   ar
    23     4    14    1
    24    21    23    1
    25    11    15    1
@<TRIPOS>MOLECULE
*****
 23 25 0 0 0
SMALL
GASTEIGER

@<TRIPOS>ATOM
      1 O          62.3906   89.5970   11.3818 O.2     1  UNL1       -0.2831
      2 C          62.0517   88.2017   10.9481 C.ar    1  UNL1        0.2351
      3 C          62.6073   87.0274   11.6980 C.ar    1  UNL1        0.2081
      4 O          63.5020   87.2485   12.8816 O.3     1  UNL1       -0.5007
      5 C          62.2684   85.6321   11.2643 C.ar    1  UNL1        0.1819
      6 O          61.3738   85.4110   10.0808 O.2     1  UNL1       -0.4502
      7 C          60.8181   86.5853    9.3308 C.ar    1  UNL1        0.1487
      8 C          59.9235   86.3642    8.1473 C.ar    1  UNL1        0.0407
      9 C          59.3678   87.5384    7.3975 C.ar    1  UNL1        0.0397
     10 C          59.7068   88.9338    7.8312 C.ar    1  UNL1        0.1340
     11 O          59.1511   90.1081    7.0813 O.3     1  UNL1       -0.5055
     12 C          60.6014   89.1549    9.0147 C.ar    1  UNL1        0.0430
     13 C          61.1570   87.9806    9.7645 C.ar    1  UNL1        0.0796
     14 H          63.7137   88.1201   13.1525 H       1  UNL1        0.2924
     15 H          58.5922   89.9700    6.3419 H       1  UNL1        0.2922
     16 C          62.8241   84.4578   12.0142 C.ar    1  UNL1        0.0407
     17 C          63.7386   83.4907   11.3225 C.ar    1  UNL1        0.0033
     18 C          64.2942   82.3165   12.0724 C.ar    1  UNL1        0.0032
     19 C          63.9354   82.1093   13.5140 C.ar    1  UNL1        0.0366
     20 C          63.0209   83.0763   14.2057 C.ar    1  UNL1        0.1338
     21 O          62.6621   82.8691   15.6474 O.3     1  UNL1       -0.5055
     22 C          62.4652   84.2506   13.4558 C.ar    1  UNL1        0.0398
     23 H          63.0092   82.1356   16.1158 H       1  UNL1        0.2922
@<TRIPOS>BOND
     1     1     2    2
     2     2     3   ar
     3     3     4    1
     4     3     5   ar
     5     5    16    1
     6    16    17   ar
     7    17    18   ar
     8    18    19   ar
     9    19    20   ar
    10    20    21    1
    11    20    22   ar
    12     5     6   ar
    13     6     7   ar
    14     7     8   ar
    15     8     9   ar
    16     9    10   ar
    17    10    11    1
    18    10    12   ar
    19    12    13   ar
    20    13     2   ar
    21    22    16   ar
    22    13     7   ar
    23     4    14    1
    24    21    23    1
    25    11    15    1
@<TRIPOS>MOLECULE
*****
 23 25 0 0 0
SMALL
GASTEIGER

@<TRIPOS>ATOM
      1 O          61.7615   88.3198   10.0723 O.2     1  UNL1       -0.2831
      2 C          62.3931   87.5469   11.1919 C.ar    1  UNL1        0.2351
      3 C          62.3214   86.0487   11.2030 C.ar    1  UNL1        0.2081
      4 O          61.6180   85.3233   10.0943 O.3     1  UNL1       -0.5007
      5 C          62.9531   85.2759   12.3227 C.ar    1  UNL1        0.1819
      6 O          63.6564   86.0012   13.4313 O.2     1  UNL1       -0.4502
      7 C          63.7282   87.4995   13.4203 C.ar    1  UNL1        0.1487
      8 C          64.4315   88.2248   14.5289 C.ar    1  UNL1        0.0407
      9 C          64.5033   89.7230   14.5179 C.ar    1  UNL1        0.0397
     10 C          63.8716   90.4959   13.3982 C.ar    1  UNL1        0.1340
     11 O          63.9434   91.9942   13.3872 O.3     1  UNL1       -0.5055
     12 C          63.1682   89.7706   12.2896 C.ar    1  UNL1        0.0430
     13 C          63.0965   88.2724   12.3006 C.ar    1  UNL1        0.0796
     14 H          61.2235   85.8061    9.3949 H       1  UNL1        0.2924
     15 H          64.3827   92.4473   14.0798 H       1  UNL1        0.2922
     16 C          62.8813   83.7776   12.3336 C.ar    1  UNL1        0.0407
     17 C          63.2997   82.9978   11.1226 C.ar    1  UNL1        0.0033
     18 C          63.2280   81.4996   11.1336 C.ar    1  UNL1        0.0032
     19 C          62.7378   80.7811   12.3557 C.ar    1  UNL1        0.0366
     20 C          62.3194   81.5609   13.5668 C.ar    1  UNL1        0.1338
     21 O          61.8292   80.8425   14.7890 O.3     1  UNL1       -0.5055
     22 C          62.3911   83.0591   13.5558 C.ar    1  UNL1        0.0398
     23 H          61.7844   79.9066   14.7958 H       1  UNL1        0.2922
@<TRIPOS>BOND
     1     1     2    2
     2     2     3   ar
     3     3     4    1
     4     3     5   ar
     5     5    16    1
     6    16    17   ar
     7    17    18   ar
     8    18    19   ar
     9    19    20   ar
    10    20    21    1
    11    20    22   ar
    12     5     6   ar
    13     6     7   ar
    14     7     8   ar
    15     8     9   ar
    16     9    10   ar
    17    10    11    1
    18    10    12   ar
    19    12    13   ar
    20    13     2   ar
    21    22    16   ar
    22    13     7   ar
    23     4    14    1
    24    21    23    1
    25    11    15    1
@<TRIPOS>MOLECULE
*****
 23 25 0 0 0
SMALL
GASTEIGER

@<TRIPOS>ATOM
      1 O          64.5329   82.7382    9.6270 O.2     1  UNL1       -0.2831
      2 C          63.6396   83.6283   10.4392 C.ar    1  UNL1        0.2351
      3 C          63.0226   84.8439    9.8135 C.ar    1  UNL1        0.2081
      4 O          63.2989   85.1694    8.3755 O.3     1  UNL1       -0.5007
      5 C          62.1293   85.7340   10.6257 C.ar    1  UNL1        0.1819
      6 O          61.8530   85.4086   12.0636 O.2     1  UNL1       -0.4502
      7 C          62.4700   84.1930   12.6894 C.ar    1  UNL1        0.1487
      8 C          62.1937   83.8675   14.1274 C.ar    1  UNL1        0.0407
      9 C          62.8108   82.6520   14.7531 C.ar    1  UNL1        0.0397
     10 C          63.7041   81.7618   13.9409 C.ar    1  UNL1        0.1340
     11 O          64.3211   80.5462   14.5668 O.3     1  UNL1       -0.5055
     12 C          63.9804   82.0873   12.5030 C.ar    1  UNL1        0.0430
     13 C          63.3633   83.3028   11.8772 C.ar    1  UNL1        0.0796
     14 H          63.8569   84.6134    7.8681 H       1  UNL1        0.2924
     15 H          64.1485   80.3429   15.4650 H       1  UNL1        0.2922
     16 C          61.5122   86.9497    9.9998 C.ar    1  UNL1        0.0407
     17 C          62.0477   88.3131   10.3226 C.ar    1  UNL1        0.0033
     18 C          61.4307   89.5286    9.6967 C.ar    1  UNL1        0.0032
     19 C          60.2781   89.3807    8.7482 C.ar    1  UNL1        0.0366
     20 C          59.7426   88.0173    8.4255 C.ar    1  UNL1        0.1338
     21 O          58.5901   87.8694    7.4769 O.3     1  UNL1       -0.5055
     22 C          60.3597   86.8017    9.0513 C.ar    1  UNL1        0.0398
     23 H          58.2046   88.6287    7.0860 H       1  UNL1        0.2922
@<TRIPOS>BOND
     1     1     2    2
     2     2     3   ar
     3     3     4    1
     4     3     5   ar
     5     5    16    1
     6    16    17   ar
     7    17    18   ar
     8    18    19   ar
     9    19    20   ar
    10    20    21    1
    11    20    22   ar
    12     5     6   ar
    13     6     7   ar
    14     7     8   ar
    15     8     9   ar
    16     9    10   ar
    17    10    11    1
    18    10    12   ar
    19    12    13   ar
    20    13     2   ar
    21    22    16   ar
    22    13     7   ar
    23     4    14    1
    24    21    23    1
    25    11    15    1
@<TRIPOS>MOLECULE
*****
 23 25 0 0 0
SMALL
GASTEIGER

@<TRIPOS>ATOM
      1 O          61.8112   88.4790   10.0810 O.2     1  UNL1       -0.2831
      2 C          62.4215   87.7705   11.2539 C.ar    1  UNL1        0.2351
      3 C          62.2797   86.2834   11.3886 C.ar    1  UNL1        0.2081
      4 O          61.5276   85.5045   10.3503 O.3     1  UNL1       -0.5007
      5 C          62.8900   85.5749   12.5615 C.ar    1  UNL1        0.1819
      6 O          63.6420   86.3537   13.5997 O.2     1  UNL1       -0.4502
      7 C          63.7838   87.8409   13.4650 C.ar    1  UNL1        0.1487
      8 C          64.5359   88.6197   14.5033 C.ar    1  UNL1        0.0407
      9 C          64.6777   90.1068   14.3686 C.ar    1  UNL1        0.0397
     10 C          64.0674   90.8152   13.1957 C.ar    1  UNL1        0.1340
     11 O          64.2092   92.3025   13.0610 O.3     1  UNL1       -0.5055
     12 C          63.3153   90.0365   12.1575 C.ar    1  UNL1        0.0430
     13 C          63.1736   88.5493   12.2922 C.ar    1  UNL1        0.0796
     14 H          61.1464   85.9471    9.6177 H       1  UNL1        0.2924
     15 H          64.6790   92.7890   13.7096 H       1  UNL1        0.2922
     16 C          62.7482   84.0877   12.6961 C.ar    1  UNL1        0.0407
     17 C          62.3291   83.4898   14.0064 C.ar    1  UNL1        0.0033
     18 C          62.1873   82.0026   14.1410 C.ar    1  UNL1        0.0032
     19 C          62.4646   81.1133   12.9653 C.ar    1  UNL1        0.0366
     20 C          62.8837   81.7112   11.6550 C.ar    1  UNL1        0.1338
     21 O          63.1609   80.8219   10.4793 O.3     1  UNL1       -0.5055
     22 C          63.0254   83.1984   11.5204 C.ar    1  UNL1        0.0398
     23 H          63.0724   79.8929   10.5634 H       1  UNL1        0.2922
@<TRIPOS>BOND
     1     1     2    2
     2     2     3   ar
     3     3     4    1
     4     3     5   ar
     5     5    16    1
     6    16    17   ar
     7    17    18   ar
     8    18    19   ar
     9    19    20   ar
    10    20    21    1
    11    20    22   ar
    12     5     6   ar
    13     6     7   ar
    14     7     8   ar
    15     8     9   ar
    16     9    10   ar
    17    10    11    1
    18    10    12   ar
    19    12    13   ar
    20    13     2   ar
    21    22    16   ar
    22    13     7   ar
    23     4    14    1
    24    21    23    1
    25    11    15    1
@<TRIPOS>MOLECULE
*****
 23 25 0 0 0
SMALL
GASTEIGER

@<TRIPOS>ATOM
      1 O          61.7338   85.7394   11.6214 O.2     1  UNL1       -0.2831
      2 C          61.8330   87.1694   11.1795 C.ar    1  UNL1        0.2351
      3 C          62.7557   88.1126   11.8928 C.ar    1  UNL1        0.2081
      4 O          63.5794   87.6257   13.0482 O.3     1  UNL1       -0.5007
      5 C          62.8549   89.5426   11.4510 C.ar    1  UNL1        0.1819
      6 O          62.0314   90.0294   10.2957 O.2     1  UNL1       -0.4502
      7 C          61.1085   89.0863    9.5823 C.ar    1  UNL1        0.1487
      8 C          60.2850   89.5731    8.4270 C.ar    1  UNL1        0.0407
      9 C          59.3622   88.6300    7.7136 C.ar    1  UNL1        0.0397
     10 C          59.2630   87.2000    8.1555 C.ar    1  UNL1        0.1340
     11 O          58.3402   86.2568    7.4421 O.3     1  UNL1       -0.5055
     12 C          60.0866   86.7131    9.3108 C.ar    1  UNL1        0.0430
     13 C          61.0093   87.6563   10.0242 C.ar    1  UNL1        0.0796
     14 H          63.5174   86.7325   13.3242 H       1  UNL1        0.2924
     15 H          57.8257   86.5610    6.7204 H       1  UNL1        0.2922
     16 C          63.7778   90.4857   12.1644 C.ar    1  UNL1        0.0407
     17 C          64.0910   90.2741   13.6160 C.ar    1  UNL1        0.0033
     18 C          65.0138   91.2172   14.3293 C.ar    1  UNL1        0.0032
     19 C          65.6233   92.3720   13.5911 C.ar    1  UNL1        0.0366
     20 C          65.3101   92.5837   12.1396 C.ar    1  UNL1        0.1338
     21 O          65.9196   93.7385   11.4014 O.3     1  UNL1       -0.5055
     22 C          64.3873   91.6405   11.4262 C.ar    1  UNL1        0.0398
     23 H          66.4961   94.3276   11.8470 H       1  UNL1        0.2922
@<TRIPOS>BOND
     1     1     2    2
     2     2     3   ar
     3     3     4    1
     4     3     5   ar
     5     5    16    1
     6    16    17   ar
     7    17    18   ar
     8    18    19   ar
     9    19    20   ar
    10    20    21    1
    11    20    22   ar
    12     5     6   ar
    13     6     7   ar
    14     7     8   ar
    15     8     9   ar
    16     9    10   ar
    17    10    11    1
    18    10    12   ar
    19    12    13   ar
    20    13     2   ar
    21    22    16   ar
    22    13     7   ar
    23     4    14    1
    24    21    23    1
    25    11    15    1
@<TRIPOS>MOLECULE
*****
 23 25 0 0 0
SMALL
GASTEIGER

@<TRIPOS>ATOM
      1 O          62.4549   85.1609   11.5416 O.2     1  UNL1       -0.2831
      2 C          62.3189   86.6495   11.4168 C.ar    1  UNL1        0.2351
      3 C          63.0308   87.5511   12.3812 C.ar    1  UNL1        0.2081
      4 O          63.8788   86.9642   13.4705 O.3     1  UNL1       -0.5007
      5 C          62.8948   89.0397   12.2564 C.ar    1  UNL1        0.1819
      6 O          62.0468   89.6267   11.1672 O.2     1  UNL1       -0.4502
      7 C          61.3348   88.7250   10.2028 C.ar    1  UNL1        0.1487
      8 C          60.4869   89.3120    9.1136 C.ar    1  UNL1        0.0407
      9 C          59.7749   88.4104    8.1492 C.ar    1  UNL1        0.0397
     10 C          59.9109   86.9218    8.2739 C.ar    1  UNL1        0.1340
     11 O          59.1989   86.0201    7.3094 O.3     1  UNL1       -0.5055
     12 C          60.7589   86.3348    9.3631 C.ar    1  UNL1        0.0430
     13 C          61.4708   87.2364   10.3275 C.ar    1  UNL1        0.0796
     14 H          63.9638   86.0343   13.5484 H       1  UNL1        0.2924
     15 H          58.6692   86.3868    6.6290 H       1  UNL1        0.2922
     16 C          63.6068   89.9414   13.2209 C.ar    1  UNL1        0.0407
     17 C          64.7360   90.8064   12.7451 C.ar    1  UNL1        0.0033
     18 C          65.4479   91.7080   13.7095 C.ar    1  UNL1        0.0032
     19 C          65.0307   91.7445   15.1499 C.ar    1  UNL1        0.0366
     20 C          63.9015   90.8794   15.6257 C.ar    1  UNL1        0.1338
     21 O          63.4842   90.9159   17.0661 O.3     1  UNL1       -0.5055
     22 C          63.1895   89.9778   14.6613 C.ar    1  UNL1        0.0398
     23 H          63.9290   91.4791   17.6685 H       1  UNL1        0.2922
@<TRIPOS>BOND
     1     1     2    2
     2     2     3   ar
     3     3     4    1
     4     3     5   ar
     5     5    16    1
     6    16    17   ar
     7    17    18   ar
     8    18    19   ar
     9    19    20   ar
    10    20    21    1
    11    20    22   ar
    12     5     6   ar
    13     6     7   ar
    14     7     8   ar
    15     8     9   ar
    16     9    10   ar
    17    10    11    1
    18    10    12   ar
    19    12    13   ar
    20    13     2   ar
    21    22    16   ar
    22    13     7   ar
    23     4    14    1
    24    21    23    1
    25    11    15    1
@<TRIPOS>MOLECULE
*****
 23 25 0 0 0
SMALL
GASTEIGER

@<TRIPOS>ATOM
      1 O          63.1052   86.0984   13.0008 O.2     1  UNL1       -0.2831
      2 C          63.1542   87.5635   12.6831 C.ar    1  UNL1        0.2351
      3 C          63.9817   88.4868   13.5273 C.ar    1  UNL1        0.2081
      4 O          64.7603   87.9449   14.6894 O.3     1  UNL1       -0.5007
      5 C          64.0308   89.9519   13.2096 C.ar    1  UNL1        0.1819
      6 O          63.2522   90.4938   12.0476 O.2     1  UNL1       -0.4502
      7 C          62.4246   89.5706   11.2033 C.ar    1  UNL1        0.1487
      8 C          61.6461   90.1125   10.0414 C.ar    1  UNL1        0.0407
      9 C          60.8186   89.1893    9.1972 C.ar    1  UNL1        0.0397
     10 C          60.7696   87.7241    9.5149 C.ar    1  UNL1        0.1340
     11 O          59.9420   86.8009    8.6706 O.3     1  UNL1       -0.5055
     12 C          61.5481   87.1822   10.6768 C.ar    1  UNL1        0.0430
     13 C          62.3756   88.1054   11.5211 C.ar    1  UNL1        0.0796
     14 H          64.7297   87.0297   14.8878 H       1  UNL1        0.2924
     15 H          59.4556   87.1394    7.9447 H       1  UNL1        0.2922
     16 C          64.8584   90.8752   14.0539 C.ar    1  UNL1        0.0407
     17 C          66.2042   91.3286   13.5713 C.ar    1  UNL1        0.0033
     18 C          67.0317   92.2518   14.4156 C.ar    1  UNL1        0.0032
     19 C          66.5134   92.7216   15.7425 C.ar    1  UNL1        0.0366
     20 C          65.1675   92.2681   16.2251 C.ar    1  UNL1        0.1338
     21 O          64.6491   92.7378   17.5520 O.3     1  UNL1       -0.5055
     22 C          64.3400   91.3449   15.3808 C.ar    1  UNL1        0.0398
     23 H          65.1661   93.3145   18.0794 H       1  UNL1        0.2922
@<TRIPOS>BOND
     1     1     2    2
     2     2     3   ar
     3     3     4    1
     4     3     5   ar
     5     5    16    1
     6    16    17   ar
     7    17    18   ar
     8    18    19   ar
     9    19    20   ar
    10    20    21    1
    11    20    22   ar
    12     5     6   ar
    13     6     7   ar
    14     7     8   ar
    15     8     9   ar
    16     9    10   ar
    17    10    11    1
    18    10    12   ar
    19    12    13   ar
    20    13     2   ar
    21    22    16   ar
    22    13     7   ar
    23     4    14    1
    24    21    23    1
    25    11    15    1
@<TRIPOS>MOLECULE
*****
 23 25 0 0 0
SMALL
GASTEIGER

@<TRIPOS>ATOM
      1 O          62.5381   85.2187    7.7375 O.2     1  UNL1       -0.2831
      2 C          62.2436   85.7130    9.1227 C.ar    1  UNL1        0.2351
      3 C          62.7698   84.9669   10.3129 C.ar    1  UNL1        0.2081
      4 O          63.5905   83.7266   10.1179 O.3     1  UNL1       -0.5007
      5 C          62.4752   85.4612   11.6982 C.ar    1  UNL1        0.1819
      6 O          61.6546   86.7015   11.8933 O.2     1  UNL1       -0.4502
      7 C          61.1284   87.4476   10.7030 C.ar    1  UNL1        0.1487
      8 C          60.3077   88.6879   10.8981 C.ar    1  UNL1        0.0407
      9 C          59.7816   89.4339    9.7080 C.ar    1  UNL1        0.0397
     10 C          60.0761   88.9397    8.3227 C.ar    1  UNL1        0.1340
     11 O          59.5499   89.6858    7.1325 O.3     1  UNL1       -0.5055
     12 C          60.8967   87.6994    8.1276 C.ar    1  UNL1        0.0430
     13 C          61.4229   86.9533    9.3178 C.ar    1  UNL1        0.0796
     14 H          63.7745   83.4178    9.2525 H       1  UNL1        0.2924
     15 H          59.0372   90.4606    7.2544 H       1  UNL1        0.2922
     16 C          63.0015   84.7151   12.8884 C.ar    1  UNL1        0.0407
     17 C          64.0443   85.3420   13.7655 C.ar    1  UNL1        0.0033
     18 C          64.5705   84.5959   14.9556 C.ar    1  UNL1        0.0032
     19 C          64.0537   83.2229   15.2687 C.ar    1  UNL1        0.0366
     20 C          63.0108   82.5961   14.3915 C.ar    1  UNL1        0.1338
     21 O          62.4941   81.2231   14.7046 O.3     1  UNL1       -0.5055
     22 C          62.4847   83.3422   13.2014 C.ar    1  UNL1        0.0398
     23 H          62.8228   80.7571   15.4480 H       1  UNL1        0.2922
@<TRIPOS>BOND
     1     1     2    2
     2     2     3   ar
     3     3     4    1
     4     3     5   ar
     5     5    16    1
     6    16    17   ar
     7    17    18   ar
     8    18    19   ar
     9    19    20   ar
    10    20    21    1
    11    20    22   ar
    12     5     6   ar
    13     6     7   ar
    14     7     8   ar
    15     8     9   ar
    16     9    10   ar
    17    10    11    1
    18    10    12   ar
    19    12    13   ar
    20    13     2   ar
    21    22    16   ar
    22    13     7   ar
    23     4    14    1
    24    21    23    1
    25    11    15    1
