@<TRIPOS>MOLECULE
*****
 32 35 0 0 0
SMALL
GASTEIGER

@<TRIPOS>ATOM
      1 C          63.5240   85.5812   12.8688 C.ar    1  UNL1       -0.0004
      2 C          64.2611   85.5378   14.1744 C.ar    1  UNL1       -0.0024
      3 C          64.6455   86.8146   14.8614 C.ar    1  UNL1       -0.0002
      4 C          64.2927   88.1348   14.2428 C.ar    1  UNL1        0.0030
      5 C          64.6771   89.4117   14.9298 C.ar    1  UNL1        0.0369
      6 C          64.3244   90.7318   14.3112 C.ar    1  UNL1        0.1391
      7 C          63.5872   90.7751   13.0055 C.ar    1  UNL1        0.0369
      8 C          63.2028   89.4983   12.3185 C.ar    1  UNL1        0.0031
      9 C          63.5556   88.1782   12.9371 C.ar    1  UNL1       -0.0001
     10 C          63.1712   86.9014   12.2502 C.ar    1  UNL1       -0.0024
     11 C          63.1396   84.3043   12.1818 C.3     1  UNL1        0.1240
     12 N          62.6176   83.1490   12.9835 N.ar    1  UNL1       -0.3045
     13 C          62.3574   81.7645   12.4685 C.ar    1  UNL1        0.0983
     14 C          61.8431   80.9351   13.6077 C.ar    1  UNL1        0.1193
     15 N          61.7855   81.8072   14.8268 N.ar    1  UNL1       -0.2223
     16 C          62.2642   83.1754   14.4410 C.ar    1  UNL1        0.1788
     17 C          64.1945   83.1511   10.1063 C.3     1  UNL1        0.0197
     18 C          63.2772   84.1829   10.6931 C.3     1  UNL1        0.0827
     19 N          62.4976   85.0931    9.7910 N.3     1  UNL1       -0.2696
     20 C          62.9945   85.3815    8.4054 C.3     1  UNL1        0.0897
     21 C          61.2211   85.7150   10.2746 C.3     1  UNL1        0.0897
     22 O          64.7087   92.0086   14.9981 O.3     1  UNL1       -0.4706
     23 C          66.0388   92.6418   14.7149 C.3     1  UNL1        0.2320
     24 C          66.5175   92.7800   13.3001 C.ar    1  UNL1        0.0212
     25 C          67.6157   91.8947   12.7901 C.ar    1  UNL1       -0.0007
     26 C          68.0945   92.0329   11.3753 C.ar    1  UNL1        0.0009
     27 C          67.4750   93.0565   10.4705 C.ar    1  UNL1        0.0140
     28 C          66.3767   93.9417   10.9805 C.ar    1  UNL1        0.0009
     29 C          65.8980   93.8035   12.3953 C.ar    1  UNL1       -0.0007
     30 C          67.9538   93.1947    9.0557 C.2     1  UNL1        0.0729
     31 O          68.6736   92.0577    8.3930 O.co2   1  UNL1       -0.5446
     32 O          67.7127   94.4699    8.3036 O.co2   1  UNL1       -0.5446
@<TRIPOS>UNITY_ATOM_ATTR
31 1
charge -1
@<TRIPOS>BOND
     1    17    18    1
     2    18    11    1
     3    11     1    1
     4     1     2   ar
     5     2     3   ar
     6     3     4   ar
     7     4     5   ar
     8     5     6   ar
     9     6    22    1
    10    22    23    1
    11    23    24    1
    12    24    25   ar
    13    25    26   ar
    14    26    27   ar
    15    27    30    1
    16    30    31   ar
    17    30    32   ar
    18    27    28   ar
    19    28    29   ar
    20     6     7   ar
    21     7     8   ar
    22     8     9   ar
    23     9    10   ar
    24    11    12    1
    25    12    13   ar
    26    13    14   ar
    27    14    15   ar
    28    15    16   ar
    29    18    19    1
    30    19    20    1
    31    19    21    1
    32    10     1   ar
    33    16    12   ar
    34     9     4   ar
    35    29    24   ar
@<TRIPOS>MOLECULE
*****
 32 35 0 0 0
SMALL
GASTEIGER

@<TRIPOS>ATOM
      1 C          62.4236   88.2227   10.3648 C.ar    1  UNL1       -0.0004
      2 C          62.4614   89.6334    9.8567 C.ar    1  UNL1       -0.0024
      3 C          63.0131   90.7276   10.7217 C.ar    1  UNL1       -0.0002
      4 C          63.5270   90.4111   12.0949 C.ar    1  UNL1        0.0030
      5 C          64.0787   91.5054   12.9600 C.ar    1  UNL1        0.0369
      6 C          64.5925   91.1888   14.3332 C.ar    1  UNL1        0.1391
      7 C          64.5547   89.7780   14.8414 C.ar    1  UNL1        0.0369
      8 C          64.0030   88.6838   13.9763 C.ar    1  UNL1        0.0031
      9 C          63.4892   89.0003   12.6031 C.ar    1  UNL1       -0.0001
     10 C          62.9375   87.9061   11.7381 C.ar    1  UNL1       -0.0024
     11 C          61.8719   87.1284    9.4998 C.3     1  UNL1        0.1240
     12 N          60.6087   87.3517    8.7224 N.ar    1  UNL1       -0.3045
     13 C          60.0780   88.6779    8.2645 C.ar    1  UNL1        0.0983
     14 C          58.7956   88.4339    7.5256 C.ar    1  UNL1        0.1193
     15 N          58.5337   86.9569    7.5268 N.ar    1  UNL1       -0.2223
     16 C          59.6543   86.2881    8.2665 C.ar    1  UNL1        0.1788
     17 C          63.2162   85.3846    8.1206 C.3     1  UNL1        0.0197
     18 C          62.5835   85.8109    9.4121 C.3     1  UNL1        0.0827
     19 N          62.6624   84.9195   10.6160 N.3     1  UNL1       -0.2696
     20 C          61.7796   85.1792   11.8007 C.3     1  UNL1        0.0897
     21 C          63.6241   83.7686   10.6353 C.3     1  UNL1        0.0897
     22 O          65.1442   92.2830   15.1982 O.3     1  UNL1       -0.4706
     23 C          66.3849   93.0155   14.7809 C.3     1  UNL1        0.2320
     24 C          66.7569   93.0948   13.3300 C.ar    1  UNL1        0.0212
     25 C          67.6420   92.0461   12.7243 C.ar    1  UNL1       -0.0007
     26 C          68.0140   92.1252   11.2733 C.ar    1  UNL1        0.0009
     27 C          67.5009   93.2532   10.4280 C.ar    1  UNL1        0.0140
     28 C          66.6158   94.3019   11.0337 C.ar    1  UNL1        0.0009
     29 C          66.2439   94.2227   12.4847 C.ar    1  UNL1       -0.0007
     30 C          67.8729   93.3324    8.9770 C.2     1  UNL1        0.0729
     31 O          68.6274   92.2069    8.3337 O.co2   1  UNL1       -0.5446
     32 O          67.4903   94.5371    8.1695 O.co2   1  UNL1       -0.5446
@<TRIPOS>UNITY_ATOM_ATTR
31 1
charge -1
@<TRIPOS>BOND
     1    17    18    1
     2    18    11    1
     3    11     1    1
     4     1     2   ar
     5     2     3   ar
     6     3     4   ar
     7     4     5   ar
     8     5     6   ar
     9     6    22    1
    10    22    23    1
    11    23    24    1
    12    24    25   ar
    13    25    26   ar
    14    26    27   ar
    15    27    30    1
    16    30    31   ar
    17    30    32   ar
    18    27    28   ar
    19    28    29   ar
    20     6     7   ar
    21     7     8   ar
    22     8     9   ar
    23     9    10   ar
    24    11    12    1
    25    12    13   ar
    26    13    14   ar
    27    14    15   ar
    28    15    16   ar
    29    18    19    1
    30    19    20    1
    31    19    21    1
    32    10     1   ar
    33    16    12   ar
    34     9     4   ar
    35    29    24   ar
@<TRIPOS>MOLECULE
*****
 32 35 0 0 0
SMALL
GASTEIGER

@<TRIPOS>ATOM
      1 C          62.5271   87.7612   10.6926 C.ar    1  UNL1       -0.0004
      2 C          62.4731   89.1163   10.0517 C.ar    1  UNL1       -0.0024
      3 C          62.9692   90.3192   10.7978 C.ar    1  UNL1       -0.0002
      4 C          63.5194   90.1670   12.1850 C.ar    1  UNL1        0.0030
      5 C          64.0156   91.3700   12.9311 C.ar    1  UNL1        0.0369
      6 C          64.5658   91.2179   14.3183 C.ar    1  UNL1        0.1391
      7 C          64.6199   89.8628   14.9592 C.ar    1  UNL1        0.0369
      8 C          64.1237   88.6599   14.2130 C.ar    1  UNL1        0.0031
      9 C          63.5735   88.8120   12.8259 C.ar    1  UNL1       -0.0001
     10 C          63.0774   87.6091   12.0797 C.ar    1  UNL1       -0.0024
     11 C          62.0310   86.5582    9.9464 C.3     1  UNL1        0.1240
     12 N          62.6069   85.2044   10.2386 N.ar    1  UNL1       -0.3045
     13 C          62.3705   84.3946   11.4789 C.ar    1  UNL1        0.0983
     14 C          63.1378   83.1123   11.3486 C.ar    1  UNL1        0.1193
     15 N          63.8484   83.1295   10.0277 N.ar    1  UNL1       -0.2223
     16 C          63.5202   84.4225    9.3417 C.ar    1  UNL1        0.1788
     17 C          60.9347   85.7976    7.7172 C.3     1  UNL1        0.0197
     18 C          60.9590   86.7092    8.9082 C.3     1  UNL1        0.0827
     19 N          59.9112   87.7717    9.0609 N.3     1  UNL1       -0.2696
     20 C          59.3737   88.1049   10.4211 C.3     1  UNL1        0.0897
     21 C          59.4011   88.5009    7.8535 C.3     1  UNL1        0.0897
     22 O          65.0620   92.4208   15.0644 O.3     1  UNL1       -0.4706
     23 C          66.3507   93.0743   14.6617 C.3     1  UNL1        0.2320
     24 C          66.7373   93.1415   13.2140 C.ar    1  UNL1        0.0212
     25 C          66.2609   94.2809   12.3627 C.ar    1  UNL1       -0.0007
     26 C          66.6474   94.3481   10.9148 C.ar    1  UNL1        0.0009
     27 C          67.5103   93.2759   10.3184 C.ar    1  UNL1        0.0140
     28 C          67.9867   92.1364   11.1698 C.ar    1  UNL1        0.0009
     29 C          67.6002   92.0692   12.6175 C.ar    1  UNL1       -0.0007
     30 C          67.8968   93.3430    8.8706 C.2     1  UNL1        0.0729
     31 O          68.6707   92.2190    8.2480 O.co2   1  UNL1       -0.5446
     32 O          67.5094   94.5342    8.0455 O.co2   1  UNL1       -0.5446
@<TRIPOS>UNITY_ATOM_ATTR
31 1
charge -1
@<TRIPOS>BOND
     1    17    18    1
     2    18    11    1
     3    11     1    1
     4     1     2   ar
     5     2     3   ar
     6     3     4   ar
     7     4     5   ar
     8     5     6   ar
     9     6    22    1
    10    22    23    1
    11    23    24    1
    12    24    25   ar
    13    25    26   ar
    14    26    27   ar
    15    27    30    1
    16    30    31   ar
    17    30    32   ar
    18    27    28   ar
    19    28    29   ar
    20     6     7   ar
    21     7     8   ar
    22     8     9   ar
    23     9    10   ar
    24    11    12    1
    25    12    13   ar
    26    13    14   ar
    27    14    15   ar
    28    15    16   ar
    29    18    19    1
    30    19    20    1
    31    19    21    1
    32    10     1   ar
    33    16    12   ar
    34     9     4   ar
    35    29    24   ar
@<TRIPOS>MOLECULE
*****
 32 35 0 0 0
SMALL
GASTEIGER

@<TRIPOS>ATOM
      1 C          63.2406   86.3824   12.5400 C.ar    1  UNL1       -0.0004
      2 C          63.9377   86.1406   13.8459 C.ar    1  UNL1       -0.0024
      3 C          64.4592   87.2990   14.6434 C.ar    1  UNL1       -0.0002
      4 C          64.2836   88.6993   14.1350 C.ar    1  UNL1        0.0030
      5 C          64.8051   89.8577   14.9326 C.ar    1  UNL1        0.0369
      6 C          64.6294   91.2580   14.4242 C.ar    1  UNL1        0.1391
      7 C          63.9323   91.4997   13.1182 C.ar    1  UNL1        0.0369
      8 C          63.4108   90.3413   12.3207 C.ar    1  UNL1        0.0031
      9 C          63.5864   88.9411   12.8291 C.ar    1  UNL1       -0.0001
     10 C          63.0650   87.7827   12.0316 C.ar    1  UNL1       -0.0024
     11 C          62.7191   85.2240   11.7424 C.3     1  UNL1        0.1240
     12 N          62.1740   85.4480   10.3630 N.ar    1  UNL1       -0.3045
     13 C          60.8291   86.0221   10.0289 C.ar    1  UNL1        0.0983
     14 C          60.7019   86.0662    8.5350 C.ar    1  UNL1        0.1193
     15 N          61.9683   85.5192    7.9457 N.ar    1  UNL1       -0.2223
     16 C          62.8780   85.1372    9.0755 C.ar    1  UNL1        0.1788
     17 C          62.1041   83.5771   13.6553 C.3     1  UNL1        0.0197
     18 C          62.7428   83.8416   12.3241 C.3     1  UNL1        0.0827
     19 N          63.4052   82.7238   11.5747 N.3     1  UNL1       -0.2696
     20 C          62.8128   81.3460   11.6052 C.3     1  UNL1        0.0897
     21 C          64.6599   82.9836   10.7949 C.3     1  UNL1        0.0897
     22 O          65.1509   92.4164   15.2218 O.3     1  UNL1       -0.4706
     23 C          66.3996   93.1248   14.7870 C.3     1  UNL1        0.2320
     24 C          66.7642   93.1777   13.3330 C.ar    1  UNL1        0.0212
     25 C          67.6377   92.1124   12.7396 C.ar    1  UNL1       -0.0007
     26 C          68.0024   92.1653   11.2855 C.ar    1  UNL1        0.0009
     27 C          67.4936   93.2835   10.4249 C.ar    1  UNL1        0.0140
     28 C          66.6201   94.3489   11.0183 C.ar    1  UNL1        0.0009
     29 C          66.2554   94.2959   12.4723 C.ar    1  UNL1       -0.0007
     30 C          67.8583   93.3364    8.9709 C.2     1  UNL1        0.0729
     31 O          68.6085   92.1989    8.3439 O.co2   1  UNL1       -0.5446
     32 O          67.4727   94.5270    8.1439 O.co2   1  UNL1       -0.5446
@<TRIPOS>UNITY_ATOM_ATTR
31 1
charge -1
@<TRIPOS>BOND
     1    17    18    1
     2    18    11    1
     3    11     1    1
     4     1     2   ar
     5     2     3   ar
     6     3     4   ar
     7     4     5   ar
     8     5     6   ar
     9     6    22    1
    10    22    23    1
    11    23    24    1
    12    24    25   ar
    13    25    26   ar
    14    26    27   ar
    15    27    30    1
    16    30    31   ar
    17    30    32   ar
    18    27    28   ar
    19    28    29   ar
    20     6     7   ar
    21     7     8   ar
    22     8     9   ar
    23     9    10   ar
    24    11    12    1
    25    12    13   ar
    26    13    14   ar
    27    14    15   ar
    28    15    16   ar
    29    18    19    1
    30    19    20    1
    31    19    21    1
    32    10     1   ar
    33    16    12   ar
    34     9     4   ar
    35    29    24   ar
@<TRIPOS>MOLECULE
*****
 32 35 0 0 0
SMALL
GASTEIGER

@<TRIPOS>ATOM
      1 C          63.6896   85.6144   13.6954 C.ar    1  UNL1       -0.0004
      2 C          64.4319   85.7974   14.9860 C.ar    1  UNL1       -0.0024
      3 C          64.8052   87.1748   15.4476 C.ar    1  UNL1       -0.0002
      4 C          64.4362   88.3693   14.6187 C.ar    1  UNL1        0.0030
      5 C          64.8096   89.7469   15.0805 C.ar    1  UNL1        0.0369
      6 C          64.4406   90.9414   14.2516 C.ar    1  UNL1        0.1391
      7 C          63.6983   90.7583   12.9610 C.ar    1  UNL1        0.0369
      8 C          63.3250   89.3809   12.4993 C.ar    1  UNL1        0.0031
      9 C          63.6939   88.1864   13.3282 C.ar    1  UNL1       -0.0001
     10 C          63.3206   86.8089   12.8666 C.ar    1  UNL1       -0.0024
     11 C          63.3162   84.2369   13.2337 C.3     1  UNL1        0.1240
     12 N          63.6150   83.8108   11.8269 N.ar    1  UNL1       -0.3045
     13 C          62.9218   84.3021   10.5907 C.ar    1  UNL1        0.0983
     14 C          63.5378   83.6135    9.4091 C.ar    1  UNL1        0.1193
     15 N          64.6117   82.6966    9.9148 N.ar    1  UNL1       -0.2223
     16 C          64.6594   82.8185   11.4091 C.ar    1  UNL1        0.1788
     17 C          61.9662   83.8064   15.4114 C.3     1  UNL1        0.0197
     18 C          62.6442   83.2855   14.1788 C.3     1  UNL1        0.0827
     19 N          62.6500   81.8133   13.8914 N.3     1  UNL1       -0.2696
     20 C          61.3583   81.0929   13.6414 C.3     1  UNL1        0.0897
     21 C          63.9475   81.0616   13.8540 C.3     1  UNL1        0.0897
     22 O          64.8139   92.3188   14.7132 O.3     1  UNL1       -0.4706
     23 C          66.1733   92.8714   14.4021 C.3     1  UNL1        0.2320
     24 C          66.6205   93.0045   12.9765 C.ar    1  UNL1        0.0212
     25 C          66.1740   94.1788   12.1570 C.ar    1  UNL1       -0.0007
     26 C          66.6212   94.3120   10.7314 C.ar    1  UNL1        0.0009
     27 C          67.5149   93.2708   10.1253 C.ar    1  UNL1        0.0140
     28 C          67.9614   92.0965   10.9449 C.ar    1  UNL1        0.0009
     29 C          67.5142   91.9634   12.3705 C.ar    1  UNL1       -0.0007
     30 C          67.9620   93.4039    8.6998 C.2     1  UNL1        0.0729
     31 O          68.7767   92.3163    8.0646 O.co2   1  UNL1       -0.5446
     32 O          67.5946   94.6246    7.9094 O.co2   1  UNL1       -0.5446
@<TRIPOS>UNITY_ATOM_ATTR
31 1
charge -1
@<TRIPOS>BOND
     1    17    18    1
     2    18    11    1
     3    11     1    1
     4     1     2   ar
     5     2     3   ar
     6     3     4   ar
     7     4     5   ar
     8     5     6   ar
     9     6    22    1
    10    22    23    1
    11    23    24    1
    12    24    25   ar
    13    25    26   ar
    14    26    27   ar
    15    27    30    1
    16    30    31   ar
    17    30    32   ar
    18    27    28   ar
    19    28    29   ar
    20     6     7   ar
    21     7     8   ar
    22     8     9   ar
    23     9    10   ar
    24    11    12    1
    25    12    13   ar
    26    13    14   ar
    27    14    15   ar
    28    15    16   ar
    29    18    19    1
    30    19    20    1
    31    19    21    1
    32    10     1   ar
    33    16    12   ar
    34     9     4   ar
    35    29    24   ar
@<TRIPOS>MOLECULE
*****
 32 35 0 0 0
SMALL
GASTEIGER

@<TRIPOS>ATOM
      1 C          62.9482   86.6280   11.9726 C.ar    1  UNL1       -0.0004
      2 C          63.5941   86.1975   13.2561 C.ar    1  UNL1       -0.0024
      3 C          64.1764   87.2227   14.1834 C.ar    1  UNL1       -0.0002
      4 C          64.1127   88.6784   13.8271 C.ar    1  UNL1        0.0030
      5 C          64.6950   89.7037   14.7545 C.ar    1  UNL1        0.0369
      6 C          64.6313   91.1594   14.3983 C.ar    1  UNL1        0.1391
      7 C          63.9853   91.5898   13.1147 C.ar    1  UNL1        0.0369
      8 C          63.4031   90.5646   12.1874 C.ar    1  UNL1        0.0031
      9 C          63.4668   89.1089   12.5437 C.ar    1  UNL1       -0.0001
     10 C          62.8845   88.0837   11.6164 C.ar    1  UNL1       -0.0024
     11 C          62.3659   85.6028   11.0452 C.3     1  UNL1        0.1240
     12 N          62.7534   84.1603   11.1835 N.ar    1  UNL1       -0.3045
     13 C          62.1689   83.1798   12.1565 C.ar    1  UNL1        0.0983
     14 C          62.8476   81.8585   11.9475 C.ar    1  UNL1        0.1193
     15 N          63.8516   82.0226   10.8452 N.ar    1  UNL1       -0.2223
     16 C          63.7934   83.4451   10.3730 C.ar    1  UNL1        0.1788
     17 C          60.1495   86.7671   10.3509 C.3     1  UNL1        0.0197
     18 C          61.3962   86.0201    9.9796 C.3     1  UNL1        0.0827
     19 N          61.6732   85.6904    8.5427 N.3     1  UNL1       -0.2696
     20 C          60.5453   85.6337    7.5554 C.3     1  UNL1        0.0897
     21 C          63.0779   85.4174    8.0932 C.3     1  UNL1        0.0897
     22 O          65.2135   92.1846   15.3256 O.3     1  UNL1       -0.4706
     23 C          66.3968   92.9997   14.8947 C.3     1  UNL1        0.2320
     24 C          66.7636   93.0796   13.4425 C.ar    1  UNL1        0.0212
     25 C          67.6535   92.0360   12.8352 C.ar    1  UNL1       -0.0007
     26 C          68.0204   92.1159   11.3830 C.ar    1  UNL1        0.0009
     27 C          67.4975   93.2395   10.5380 C.ar    1  UNL1        0.0140
     28 C          66.6076   94.2832   11.1454 C.ar    1  UNL1        0.0009
     29 C          66.2407   94.2033   12.5976 C.ar    1  UNL1       -0.0007
     30 C          67.8644   93.3195    9.0858 C.2     1  UNL1        0.0729
     31 O          67.5109   94.5402    8.2890 O.co2   1  UNL1       -0.5446
     32 O          68.5847   92.1787    8.4304 O.co2   1  UNL1       -0.5446
@<TRIPOS>UNITY_ATOM_ATTR
31 1
charge -1
@<TRIPOS>BOND
     1    17    18    1
     2    18    11    1
     3    11     1    1
     4     1     2   ar
     5     2     3   ar
     6     3     4   ar
     7     4     5   ar
     8     5     6   ar
     9     6    22    1
    10    22    23    1
    11    23    24    1
    12    24    25   ar
    13    25    26   ar
    14    26    27   ar
    15    27    30    1
    16    30    31   ar
    17    30    32   ar
    18    27    28   ar
    19    28    29   ar
    20     6     7   ar
    21     7     8   ar
    22     8     9   ar
    23     9    10   ar
    24    11    12    1
    25    12    13   ar
    26    13    14   ar
    27    14    15   ar
    28    15    16   ar
    29    18    19    1
    30    19    20    1
    31    19    21    1
    32    10     1   ar
    33    16    12   ar
    34     9     4   ar
    35    29    24   ar
@<TRIPOS>MOLECULE
*****
 32 35 0 0 0
SMALL
GASTEIGER

@<TRIPOS>ATOM
      1 C          62.9860   84.6560   11.9491 C.ar    1  UNL1       -0.0004
      2 C          63.4669   84.1903   10.6068 C.ar    1  UNL1       -0.0024
      3 C          62.9063   84.8001    9.3563 C.ar    1  UNL1       -0.0002
      4 C          61.8648   85.8757    9.4481 C.ar    1  UNL1        0.0030
      5 C          61.3042   86.4855    8.1975 C.ar    1  UNL1        0.0369
      6 C          60.2627   87.5611    8.2893 C.ar    1  UNL1        0.1391
      7 C          59.7818   88.0268    9.6317 C.ar    1  UNL1        0.0369
      8 C          60.3424   87.4170   10.8822 C.ar    1  UNL1        0.0031
      9 C          61.3839   86.3414   10.7904 C.ar    1  UNL1       -0.0001
     10 C          61.9445   85.7315   12.0409 C.ar    1  UNL1       -0.0024
     11 C          63.5466   84.0461   13.1997 C.3     1  UNL1        0.1240
     12 N          63.1765   82.6434   13.5811 N.ar    1  UNL1       -0.3045
     13 C          63.8880   81.3955   13.1495 C.ar    1  UNL1        0.0983
     14 C          63.1812   80.2231   13.7628 C.ar    1  UNL1        0.1193
     15 N          62.0328   80.7466   14.5735 N.ar    1  UNL1       -0.2223
     16 C          62.0299   82.2424   14.4612 C.ar    1  UNL1        0.1788
     17 C          65.9470   84.5392   14.0628 C.3     1  UNL1        0.0197
     18 C          64.4772   84.8389   14.0688 C.3     1  UNL1        0.0827
     19 N          63.9381   85.9315   14.9438 N.3     1  UNL1       -0.2696
     20 C          63.1219   85.5887   16.1548 C.3     1  UNL1        0.0897
     21 C          64.2151   87.3669   14.6079 C.3     1  UNL1        0.0897
     22 O          59.7021   88.1709    7.0389 O.3     1  UNL1       -0.4706
     23 C          59.1231   89.5543    7.0734 C.3     1  UNL1        0.2320
     24 C          59.2963   90.4694    5.8976 C.ar    1  UNL1        0.0212
     25 C          60.6670   90.7342    5.3489 C.ar    1  UNL1       -0.0007
     26 C          60.8403   91.6493    4.1730 C.ar    1  UNL1        0.0009
     27 C          59.6428   92.2997    3.5459 C.ar    1  UNL1        0.0140
     28 C          58.2721   92.0349    4.0948 C.ar    1  UNL1        0.0009
     29 C          58.0989   91.1198    5.2706 C.ar    1  UNL1       -0.0007
     30 C          59.8160   93.2148    2.3701 C.2     1  UNL1        0.0729
     31 O          60.1492   94.6610    2.5880 O.co2   1  UNL1       -0.5446
     32 O          59.6561   92.6836    0.9765 O.co2   1  UNL1       -0.5446
@<TRIPOS>UNITY_ATOM_ATTR
31 1
charge -1
@<TRIPOS>BOND
     1    17    18    1
     2    18    11    1
     3    11     1    1
     4     1     2   ar
     5     2     3   ar
     6     3     4   ar
     7     4     5   ar
     8     5     6   ar
     9     6    22    1
    10    22    23    1
    11    23    24    1
    12    24    25   ar
    13    25    26   ar
    14    26    27   ar
    15    27    30    1
    16    30    31   ar
    17    30    32   ar
    18    27    28   ar
    19    28    29   ar
    20     6     7   ar
    21     7     8   ar
    22     8     9   ar
    23     9    10   ar
    24    11    12    1
    25    12    13   ar
    26    13    14   ar
    27    14    15   ar
    28    15    16   ar
    29    18    19    1
    30    19    20    1
    31    19    21    1
    32    10     1   ar
    33    16    12   ar
    34     9     4   ar
    35    29    24   ar
@<TRIPOS>MOLECULE
*****
 32 35 0 0 0
SMALL
GASTEIGER

@<TRIPOS>ATOM
      1 C          61.2992   93.1010    2.2017 C.ar    1  UNL1       -0.0004
      2 C          62.3808   92.2467    2.7935 C.ar    1  UNL1       -0.0024
      3 C          62.0601   91.2970    3.9093 C.ar    1  UNL1       -0.0002
      4 C          60.6578   91.2015    4.4333 C.ar    1  UNL1        0.0030
      5 C          60.3372   90.2517    5.5492 C.ar    1  UNL1        0.0369
      6 C          58.9349   90.1563    6.0732 C.ar    1  UNL1        0.1391
      7 C          57.8533   91.0107    5.4813 C.ar    1  UNL1        0.0369
      8 C          58.1740   91.9605    4.3655 C.ar    1  UNL1        0.0031
      9 C          59.5763   92.0559    3.8415 C.ar    1  UNL1       -0.0001
     10 C          59.8969   93.0056    2.7257 C.ar    1  UNL1       -0.0024
     11 C          61.6199   94.0508    1.0858 C.3     1  UNL1        0.1240
     12 N          63.0051   94.6105    0.9521 N.ar    1  UNL1       -0.3045
     13 C          63.5669   95.7674    1.7242 C.ar    1  UNL1        0.0983
     14 C          64.9808   95.9835    1.2721 C.ar    1  UNL1        0.1193
     15 N          65.2927   94.9602    0.2206 N.ar    1  UNL1       -0.2223
     16 C          64.0717   94.1117    0.0228 C.ar    1  UNL1        0.1788
     17 C          59.7847   95.7130    0.2987 C.3     1  UNL1        0.0197
     18 C          60.5553   94.4409    0.1037 C.3     1  UNL1        0.0827
     19 N          60.2613   93.5589   -1.0734 N.3     1  UNL1       -0.2696
     20 C          61.0372   93.7239   -2.3466 C.3     1  UNL1        0.0897
     21 C          59.1915   92.5119   -0.9775 C.3     1  UNL1        0.0897
     22 O          58.6142   89.2066    7.1890 O.3     1  UNL1       -0.4706
     23 C          59.6215   88.1786    7.6118 C.3     1  UNL1        0.2320
     24 C          60.5151   88.4432    8.7872 C.ar    1  UNL1        0.0212
     25 C          60.4555   89.7661    9.4917 C.ar    1  UNL1       -0.0007
     26 C          61.3491   90.0307   10.6671 C.ar    1  UNL1        0.0009
     27 C          62.3022   88.9724   11.1379 C.ar    1  UNL1        0.0140
     28 C          62.3617   87.6495   10.4333 C.ar    1  UNL1        0.0009
     29 C          61.4682   87.3849    9.2580 C.ar    1  UNL1       -0.0007
     30 C          63.1958   89.2370   12.3133 C.2     1  UNL1        0.0729
     31 O          63.6122   88.1075   13.2081 O.co2   1  UNL1       -0.5446
     32 O          63.6729   90.6312   12.5938 O.co2   1  UNL1       -0.5446
@<TRIPOS>UNITY_ATOM_ATTR
31 1
charge -1
@<TRIPOS>BOND
     1    17    18    1
     2    18    11    1
     3    11     1    1
     4     1     2   ar
     5     2     3   ar
     6     3     4   ar
     7     4     5   ar
     8     5     6   ar
     9     6    22    1
    10    22    23    1
    11    23    24    1
    12    24    25   ar
    13    25    26   ar
    14    26    27   ar
    15    27    30    1
    16    30    31   ar
    17    30    32   ar
    18    27    28   ar
    19    28    29   ar
    20     6     7   ar
    21     7     8   ar
    22     8     9   ar
    23     9    10   ar
    24    11    12    1
    25    12    13   ar
    26    13    14   ar
    27    14    15   ar
    28    15    16   ar
    29    18    19    1
    30    19    20    1
    31    19    21    1
    32    10     1   ar
    33    16    12   ar
    34     9     4   ar
    35    29    24   ar
@<TRIPOS>MOLECULE
*****
 32 35 0 0 0
SMALL
GASTEIGER

@<TRIPOS>ATOM
      1 C          62.7837   85.9970   12.1064 C.ar    1  UNL1       -0.0004
      2 C          63.2102   87.4100   12.3739 C.ar    1  UNL1       -0.0024
      3 C          62.6846   88.5262   11.5209 C.ar    1  UNL1       -0.0002
      4 C          61.7325   88.2295   10.4004 C.ar    1  UNL1        0.0030
      5 C          61.2069   89.3459    9.5474 C.ar    1  UNL1        0.0369
      6 C          60.2548   89.0492    8.4269 C.ar    1  UNL1        0.1391
      7 C          59.8283   87.6361    8.1594 C.ar    1  UNL1        0.0369
      8 C          60.3539   86.5199    9.0124 C.ar    1  UNL1        0.0031
      9 C          61.3060   86.8166   10.1329 C.ar    1  UNL1       -0.0001
     10 C          61.8316   85.7003   10.9859 C.ar    1  UNL1       -0.0024
     11 C          63.3093   84.8807   12.9594 C.3     1  UNL1        0.1240
     12 N          63.2441   83.4655   12.4664 N.ar    1  UNL1       -0.3045
     13 C          62.9594   82.2529   13.3022 C.ar    1  UNL1        0.0983
     14 C          62.9914   81.0524   12.4034 C.ar    1  UNL1        0.1193
     15 N          63.2960   81.5231   11.0121 N.ar    1  UNL1       -0.2223
     16 C          63.4522   83.0144   11.0511 C.ar    1  UNL1        0.1788
     17 C          65.3888   85.2655   14.4687 C.3     1  UNL1        0.0197
     18 C          63.9001   85.1795   14.3054 C.3     1  UNL1        0.0827
     19 N          63.0023   85.3924   15.4880 N.3     1  UNL1       -0.2696
     20 C          63.3839   86.3793   16.5513 C.3     1  UNL1        0.0897
     21 C          61.7231   84.6184   15.6075 C.3     1  UNL1        0.0897
     22 O          59.7292   90.1655    7.5739 O.3     1  UNL1       -0.4706
     23 C          59.3688   89.9084    6.1407 C.3     1  UNL1        0.2320
     24 C          59.8357   90.8489    5.0695 C.ar    1  UNL1        0.0212
     25 C          61.2707   90.8353    4.6331 C.ar    1  UNL1       -0.0007
     26 C          61.7378   91.7758    3.5619 C.ar    1  UNL1        0.0009
     27 C          60.7698   92.7299    2.9273 C.ar    1  UNL1        0.0140
     28 C          59.3347   92.7434    3.3638 C.ar    1  UNL1        0.0009
     29 C          58.8677   91.8029    4.4349 C.ar    1  UNL1       -0.0007
     30 C          61.2368   93.6704    1.8561 C.2     1  UNL1        0.0729
     31 O          60.3727   93.9312    0.6581 O.co2   1  UNL1       -0.5446
     32 O          62.5679   94.3500    1.9830 O.co2   1  UNL1       -0.5446
@<TRIPOS>UNITY_ATOM_ATTR
31 1
charge -1
@<TRIPOS>BOND
     1    17    18    1
     2    18    11    1
     3    11     1    1
     4     1     2   ar
     5     2     3   ar
     6     3     4   ar
     7     4     5   ar
     8     5     6   ar
     9     6    22    1
    10    22    23    1
    11    23    24    1
    12    24    25   ar
    13    25    26   ar
    14    26    27   ar
    15    27    30    1
    16    30    31   ar
    17    30    32   ar
    18    27    28   ar
    19    28    29   ar
    20     6     7   ar
    21     7     8   ar
    22     8     9   ar
    23     9    10   ar
    24    11    12    1
    25    12    13   ar
    26    13    14   ar
    27    14    15   ar
    28    15    16   ar
    29    18    19    1
    30    19    20    1
    31    19    21    1
    32    10     1   ar
    33    16    12   ar
    34     9     4   ar
    35    29    24   ar
