@<TRIPOS>MOLECULE
*****
 35 39 0 0 0
SMALL
GASTEIGER

@<TRIPOS>ATOM
      1 N          64.9893   91.9709   12.6027 N.am    1  LEU1       -0.2602
      2 C          64.1437   91.2212   11.6164 C.2     2  UNK2        0.2444
      3 O          64.3490   91.4254   10.1445 O.2     2  UNK2       -0.2731
      4 C          63.0927   90.2674   12.1018 C.3     2  UNK2        0.1494
      5 N          62.8874   90.0633   13.5736 N.am    2  UNK2       -0.2970
      6 C          63.7331   90.8130   14.5599 C.2     1  LEU1        0.2409
      7 O          63.5277   90.6089   16.0317 O.2     1  LEU1       -0.2733
      8 CA         64.7840   91.7668   14.0745 C.3     1  LEU1        0.1524
      9 H          62.1976   89.4373   13.8922 H       2  UNK2        0.1499
     10 C          62.2471   89.5177   11.1155 C.3     2  UNK2        0.0356
     11 C          62.1780   88.0267   10.9672 C.3     2  UNK2        0.0285
     12 C          61.2103   87.7148    9.8643 C.ar    2  UNK2       -0.0261
     13 C          60.7425   86.4164    9.2768 C.ar    2  UNK2       -0.0046
     14 C          59.7456   86.4163    8.1560 C.ar    2  UNK2       -0.0003
     15 C          59.2166   87.7147    7.6227 C.ar    2  UNK2       -0.0003
     16 C          59.6844   89.0131    8.2102 C.ar    2  UNK2       -0.0046
     17 C          60.6812   89.0132    9.3310 C.ar    2  UNK2       -0.0261
     18 C          61.3220   90.1274   10.1043 C.3     2  UNK2        0.0285
     19 C          66.0403   92.9248   12.1172 C.3     0  UNK0        0.1962
     20 C          69.2990   91.9486    8.0788 C.3     0  UNK0        0.0950
     21 C          68.6949   91.9691    9.4516 C.ar    0  UNK0        0.2061
     22 N          67.4205   92.6562    9.8439 N.ar    0  UNK0       -0.2142
     23 C          67.1970   92.4178   11.3078 C.ar    0  UNK0        0.1263
     24 C          68.3332   91.5834   11.8203 C.ar    0  UNK0        0.1979
     25 O          69.2590   91.3060   10.6731 O.2     0  UNK0       -0.4355
     26 C          65.9346   94.3856   12.4410 C.2     0  UNK0        0.2498
     27 O          66.1777   94.8626   13.8422 O.2     0  UNK0       -0.2727
     28 N          65.5859   95.3693   11.3637 N.am    0  UNK0       -0.2778
     29 C          65.2832   95.2738    9.8976 C.3     0  UNK0        0.0952
     30 C          65.0926   96.7605    9.8400 C.3     0  UNK0        0.0430
     31 C          65.3953   96.8560   11.3061 C.3     0  UNK0        0.0952
     32 CB         65.6297   92.5165   15.0608 C.3     1  LEU1        0.0292
     33 CG         67.0177   92.0412   15.3726 C.3     1  LEU1        0.0021
     34 CD1        67.4472   90.6625   14.9669 C.3     1  LEU1        0.0001
     35 CD2        67.9764   92.9447   16.0901 C.3     1  LEU1        0.0001
@<TRIPOS>BOND
     1    20    21    1
     2    21    22   ar
     3    22    23   ar
     4    23    19    1
     5    19    26    1
     6    26    27    2
     7    26    28   am
     8    28    29    1
     9    29    30    1
    10    30    31    1
    11    19     1    1
    12     1     2   am
    13     2     3    2
    14     2     4    1
    15     4    10    1
    16    10    11    1
    17    11    12    1
    18    12    13   ar
    19    13    14   ar
    20    14    15   ar
    21    15    16   ar
    22    16    17   ar
    23    17    18    1
    24     4     5    1
    25     5     6   am
    26     6     7    2
    27     6     8    1
    28     8    32    1
    29    32    33    1
    30    33    34    1
    31    33    35    1
    32    23    24   ar
    33    24    25   ar
    34    25    21   ar
    35    31    28    1
    36     8     1    1
    37    18    10    1
    38    17    12   ar
    39     5     9    1
@<TRIPOS>MOLECULE
*****
 35 39 0 0 0
SMALL
GASTEIGER

@<TRIPOS>ATOM
      1 N          64.0488   90.7397   13.1096 N.am    1  LEU1       -0.2602
      2 C          63.1975   89.8044   12.3031 C.2     2  UNK2        0.2444
      3 O          62.5985   88.5901   12.9487 O.2     2  UNK2       -0.2731
      4 C          62.9453   90.0833   10.8511 C.3     2  UNK2        0.1494
      5 N          63.5443   91.2975   10.2055 N.am    2  UNK2       -0.2970
      6 C          64.3955   92.2328   11.0120 C.2     1  LEU1        0.2409
      7 O          64.9946   93.4471   10.3664 O.2     1  LEU1       -0.2733
      8 CA         64.6478   91.9540   12.4641 C.3     1  LEU1        0.1524
      9 H          63.3787   91.4806    9.2524 H       2  UNK2        0.1499
     10 C          62.0940   89.1479   10.0445 C.3     2  UNK2        0.0356
     11 C          62.4400   87.7351    9.6780 C.3     2  UNK2        0.0285
     12 C          61.3071   87.1752    8.8699 C.ar    2  UNK2       -0.0261
     13 C          61.0930   85.8318    8.2379 C.ar    2  UNK2       -0.0046
     14 C          59.8328   85.5551    7.4730 C.ar    2  UNK2       -0.0003
     15 C          58.7866   86.6219    7.3400 C.ar    2  UNK2       -0.0003
     16 C          59.0007   87.9652    7.9720 C.ar    2  UNK2       -0.0046
     17 C          60.2610   88.2419    8.7369 C.ar    2  UNK2       -0.0261
     18 C          60.7473   89.4611    9.4629 C.3     2  UNK2        0.0285
     19 C          64.3010   90.4608   14.5618 C.3     0  UNK0        0.1962
     20 C          64.5093   85.2278   15.2349 C.3     0  UNK0        0.0950
     21 C          64.1724   86.6776   15.4202 C.ar    0  UNK0        0.2061
     22 N          64.6583   87.8118   14.5671 N.ar    0  UNK0       -0.2142
     23 C          64.0767   89.0830   15.1108 C.ar    0  UNK0        0.1263
     24 C          63.2314   88.7346   16.2999 C.ar    0  UNK0        0.1979
     25 O          63.2905   87.2480   16.4912 O.2     0  UNK0       -0.4355
     26 C          64.7776   91.5596   15.4648 C.2     0  UNK0        0.2498
     27 O          63.7853   92.3911   16.2224 O.2     0  UNK0       -0.2727
     28 N          66.2464   91.8269   15.6103 N.am    0  UNK0       -0.2778
     29 C          67.4955   91.2278   15.0351 C.3     0  UNK0        0.0952
     30 C          68.3236   92.2049   15.8159 C.3     0  UNK0        0.0430
     31 C          67.0744   92.8039   16.3910 C.3     0  UNK0        0.0952
     32 CB         65.4990   92.8893   13.2706 C.3     1  LEU1        0.0292
     33 CG         66.6036   93.6581   12.6081 C.3     1  LEU1        0.0021
     34 CD1        66.5373   95.1549   12.5365 C.3     1  LEU1        0.0001
     35 CD2        67.7744   92.9301   12.0172 C.3     1  LEU1        0.0001
@<TRIPOS>BOND
     1    20    21    1
     2    21    22   ar
     3    22    23   ar
     4    23    19    1
     5    19    26    1
     6    26    27    2
     7    26    28   am
     8    28    29    1
     9    29    30    1
    10    30    31    1
    11    19     1    1
    12     1     2   am
    13     2     3    2
    14     2     4    1
    15     4    10    1
    16    10    11    1
    17    11    12    1
    18    12    13   ar
    19    13    14   ar
    20    14    15   ar
    21    15    16   ar
    22    16    17   ar
    23    17    18    1
    24     4     5    1
    25     5     6   am
    26     6     7    2
    27     6     8    1
    28     8    32    1
    29    32    33    1
    30    33    34    1
    31    33    35    1
    32    23    24   ar
    33    24    25   ar
    34    25    21   ar
    35    31    28    1
    36     8     1    1
    37    18    10    1
    38    17    12   ar
    39     5     9    1
@<TRIPOS>MOLECULE
*****
 35 39 0 0 0
SMALL
GASTEIGER

@<TRIPOS>ATOM
      1 N          63.1043   90.1807   12.7609 N.am    1  LEU1       -0.2602
      2 C          63.8054   91.1327   11.8377 C.2     2  UNK2        0.2444
      3 O          63.5419   91.0773   10.3620 O.2     2  UNK2       -0.2731
      4 C          64.7699   92.1398   12.3901 C.3     2  UNK2        0.1494
      5 N          65.0334   92.1951   13.8658 N.am    2  UNK2       -0.2970
      6 C          64.3322   91.2432   14.7890 C.2     1  LEU1        0.2409
      7 O          64.5957   91.2985   16.2647 O.2     1  LEU1       -0.2733
      8 CA         63.3677   90.2360   14.2365 C.3     1  LEU1        0.1524
      9 H          65.6664   92.8562   14.2284 H       2  UNK2        0.1499
     10 C          65.4711   93.0917   11.4669 C.3     2  UNK2        0.0356
     11 C          65.5668   94.5786   11.6402 C.3     2  UNK2        0.0285
     12 C          66.3545   95.1297   10.4887 C.ar    2  UNK2       -0.0261
     13 C          66.7661   96.5272   10.1317 C.ar    2  UNK2       -0.0046
     14 C          67.5688   96.7784    8.8897 C.ar    2  UNK2       -0.0003
     15 C          67.9599   95.6321    8.0048 C.ar    2  UNK2       -0.0003
     16 C          67.5482   94.2346    8.3618 C.ar    2  UNK2       -0.0046
     17 C          66.7455   93.9834    9.6038 C.ar    2  UNK2       -0.0261
     18 C          66.1995   92.7239   10.2084 C.3     2  UNK2        0.0285
     19 C          62.1397   89.1735   12.2084 C.3     0  UNK0        0.1962
     20 C          56.9173   88.8080   12.8966 C.3     0  UNK0        0.0950
     21 C          58.2712   89.3119   12.4929 C.ar    0  UNK0        0.2061
     22 N          59.5799   88.6253   12.7490 N.ar    0  UNK0       -0.2142
     23 C          60.6717   89.4799   12.1766 C.ar    0  UNK0        0.1263
     24 C          60.0376   90.6949   11.5667 C.ar    0  UNK0        0.1979
     25 O          58.5540   90.5910   11.7622 O.2     0  UNK0       -0.4355
     26 C          62.6432   87.8600   11.6878 C.2     0  UNK0        0.2498
     27 O          63.6319   87.0652   12.4883 O.2     0  UNK0       -0.2727
     28 N          62.1579   87.3411   10.3667 N.am    0  UNK0       -0.2778
     29 C          61.2056   87.8350    9.3182 C.3     0  UNK0        0.0952
     30 C          61.4716   86.6075    8.4983 C.3     0  UNK0        0.0430
     31 C          62.4239   86.1136    9.5468 C.3     0  UNK0        0.0952
     32 CB         62.6666   89.2841   15.1597 C.3     1  LEU1        0.0292
     33 CG         63.4384   88.1910   15.8375 C.3     1  LEU1        0.0021
     34 CD1        64.5710   87.5174   15.1209 C.3     1  LEU1        0.0001
     35 CD2        63.0777   87.7716   17.2318 C.3     1  LEU1        0.0001
@<TRIPOS>BOND
     1    20    21    1
     2    21    22   ar
     3    22    23   ar
     4    23    19    1
     5    19    26    1
     6    26    27    2
     7    26    28   am
     8    28    29    1
     9    29    30    1
    10    30    31    1
    11    19     1    1
    12     1     2   am
    13     2     3    2
    14     2     4    1
    15     4    10    1
    16    10    11    1
    17    11    12    1
    18    12    13   ar
    19    13    14   ar
    20    14    15   ar
    21    15    16   ar
    22    16    17   ar
    23    17    18    1
    24     4     5    1
    25     5     6   am
    26     6     7    2
    27     6     8    1
    28     8    32    1
    29    32    33    1
    30    33    34    1
    31    33    35    1
    32    23    24   ar
    33    24    25   ar
    34    25    21   ar
    35    31    28    1
    36     8     1    1
    37    18    10    1
    38    17    12   ar
    39     5     9    1
@<TRIPOS>MOLECULE
*****
 35 39 0 0 0
SMALL
GASTEIGER

@<TRIPOS>ATOM
      1 N          62.9815   86.2611   12.9062 N.am    1  LEU1       -0.2602
      2 C          63.5421   87.6458   12.7716 C.2     2  UNK2        0.2444
      3 O          63.5660   88.3182   11.4308 O.2     2  UNK2       -0.2731
      4 C          64.0789   88.3582   13.9775 C.3     2  UNK2        0.1494
      5 N          64.0550   87.6858   15.3181 N.am    2  UNK2       -0.2970
      6 C          63.4944   86.3011   15.4528 C.2     1  LEU1        0.2409
      7 O          63.4706   85.6287   16.7935 O.2     1  LEU1       -0.2733
      8 CA         62.9576   85.5887   14.2468 C.3     1  LEU1        0.1524
      9 H          64.4073   88.1534   16.1096 H       2  UNK2        0.1499
     10 C          64.6395   89.7430   13.8428 C.3     2  UNK2        0.0356
     11 C          64.5323   90.6239   12.6335 C.3     2  UNK2        0.0285
     12 C          65.2323   91.9153   12.9371 C.ar    2  UNK2       -0.0261
     13 C          65.4479   93.1559   12.1219 C.ar    2  UNK2       -0.0046
     14 C          66.2034   94.3137   12.7038 C.ar    2  UNK2       -0.0003
     15 C          66.7433   94.2310   14.1008 C.ar    2  UNK2       -0.0003
     16 C          66.5277   92.9904   14.9160 C.ar    2  UNK2       -0.0046
     17 C          65.7722   91.8326   14.3341 C.ar    2  UNK2       -0.0261
     18 C          65.4059   90.4900   14.8938 C.3     2  UNK2        0.0285
     19 C          62.4447   85.5487   11.7002 C.3     0  UNK0        0.1962
     20 C          62.9520   80.4287   10.5132 C.3     0  UNK0        0.0950
     21 C          63.2637   81.8785   10.7388 C.ar    0  UNK0        0.2061
     22 N          62.2935   82.9287   11.1925 N.ar    0  UNK0       -0.2142
     23 C          63.0305   84.2319   11.2844 C.ar    0  UNK0        0.1263
     24 C          64.4562   83.9871   10.8876 C.ar    0  UNK0        0.1979
     25 O          64.6004   82.5326   10.5504 O.2     0  UNK0       -0.4355
     26 C          61.3221   86.1531   10.9100 C.2     0  UNK0        0.2498
     27 O          60.2762   86.9762   11.6017 O.2     0  UNK0       -0.2727
     28 N          61.2454   85.9345    9.4279 N.am    0  UNK0       -0.2778
     29 C          62.0766   85.1970    8.4202 C.3     0  UNK0        0.0952
     30 C          61.1371   85.6252    7.3321 C.3     0  UNK0        0.0430
     31 C          60.3060   86.3626    8.3399 C.3     0  UNK0        0.0952
     32 CB         62.3970   84.2040   14.3815 C.3     1  LEU1        0.0292
     33 CG         63.3198   83.0223   14.4270 C.3     1  LEU1        0.0021
     34 CD1        62.7592   81.6313   14.3990 C.3     1  LEU1        0.0001
     35 CD2        64.8034   83.2317   14.5004 C.3     1  LEU1        0.0001
@<TRIPOS>BOND
     1    20    21    1
     2    21    22   ar
     3    22    23   ar
     4    23    19    1
     5    19    26    1
     6    26    27    2
     7    26    28   am
     8    28    29    1
     9    29    30    1
    10    30    31    1
    11    19     1    1
    12     1     2   am
    13     2     3    2
    14     2     4    1
    15     4    10    1
    16    10    11    1
    17    11    12    1
    18    12    13   ar
    19    13    14   ar
    20    14    15   ar
    21    15    16   ar
    22    16    17   ar
    23    17    18    1
    24     4     5    1
    25     5     6   am
    26     6     7    2
    27     6     8    1
    28     8    32    1
    29    32    33    1
    30    33    34    1
    31    33    35    1
    32    23    24   ar
    33    24    25   ar
    34    25    21   ar
    35    31    28    1
    36     8     1    1
    37    18    10    1
    38    17    12   ar
    39     5     9    1
@<TRIPOS>MOLECULE
*****
 35 39 0 0 0
SMALL
GASTEIGER

@<TRIPOS>ATOM
      1 N          61.8915   87.7938   11.2494 N.am    1  LEU1       -0.2602
      2 C          62.9328   88.5406   12.0291 C.2     2  UNK2        0.2444
      3 O          64.1709   87.8336   12.4957 O.2     2  UNK2       -0.2731
      4 C          62.7362   89.9942   12.3423 C.3     2  UNK2        0.1494
      5 N          61.4982   90.7011   11.8757 N.am    2  UNK2       -0.2970
      6 C          60.4569   89.9543   11.0960 C.2     1  LEU1        0.2409
      7 O          59.2189   90.6613   10.6295 O.2     1  LEU1       -0.2733
      8 CA         60.6535   88.5006   10.7829 C.3     1  LEU1        0.1524
      9 H          61.3692   91.6552   12.0812 H       2  UNK2        0.1499
     10 C          63.7775   90.7411   13.1219 C.3     2  UNK2        0.0356
     11 C          63.9068   90.7718   14.6160 C.3     2  UNK2        0.0285
     12 C          65.0816   91.6380   14.9619 C.ar    2  UNK2       -0.0261
     13 C          65.6850   92.0324   16.2773 C.ar    2  UNK2       -0.0046
     14 C          66.8852   92.9315   16.3124 C.ar    2  UNK2       -0.0003
     15 C          67.4820   93.4361   15.0320 C.ar    2  UNK2       -0.0003
     16 C          66.8785   93.0416   13.7167 C.ar    2  UNK2       -0.0046
     17 C          65.6784   92.1426   13.6816 C.ar    2  UNK2       -0.0261
     18 C          64.8724   91.5882   12.5445 C.3     2  UNK2        0.0285
     19 C          62.0882   86.3400   10.9363 C.3     0  UNK0        0.1962
     20 C          61.1669   84.2542    6.1738 C.3     0  UNK0        0.0950
     21 C          61.8427   84.9377    7.3254 C.ar    0  UNK0        0.2061
     22 N          61.2425   85.1889    8.6769 N.ar    0  UNK0       -0.2142
     23 C          62.2661   85.8965    9.5145 C.ar    0  UNK0        0.1263
     24 C          63.4989   86.0827    8.6805 C.ar    0  UNK0        0.1979
     25 O          63.2372   85.4901    7.3276 O.2     0  UNK0       -0.4355
     26 C          62.1070   85.3299   12.0450 C.2     0  UNK0        0.2498
     27 O          61.4303   85.6344   13.3486 O.2     0  UNK0       -0.2727
     28 N          62.8024   84.0151   11.8501 N.am    0  UNK0       -0.2778
     29 C          63.5627   83.3736   10.7274 C.3     0  UNK0        0.0952
     30 C          63.7859   82.1559   11.5744 C.3     0  UNK0        0.0430
     31 C          63.0256   82.7975   12.6970 C.3     0  UNK0        0.0952
     32 CB         59.6122   87.7538   10.0032 C.3     1  LEU1        0.0292
     33 CG         59.4986   87.9534    8.5209 C.3     1  LEU1        0.0021
     34 CD1        58.7943   86.9316    7.6784 C.3     1  LEU1        0.0001
     35 CD2        60.0894   89.1747    7.8811 C.3     1  LEU1        0.0001
@<TRIPOS>BOND
     1    20    21    1
     2    21    22   ar
     3    22    23   ar
     4    23    19    1
     5    19    26    1
     6    26    27    2
     7    26    28   am
     8    28    29    1
     9    29    30    1
    10    30    31    1
    11    19     1    1
    12     1     2   am
    13     2     3    2
    14     2     4    1
    15     4    10    1
    16    10    11    1
    17    11    12    1
    18    12    13   ar
    19    13    14   ar
    20    14    15   ar
    21    15    16   ar
    22    16    17   ar
    23    17    18    1
    24     4     5    1
    25     5     6   am
    26     6     7    2
    27     6     8    1
    28     8    32    1
    29    32    33    1
    30    33    34    1
    31    33    35    1
    32    23    24   ar
    33    24    25   ar
    34    25    21   ar
    35    31    28    1
    36     8     1    1
    37    18    10    1
    38    17    12   ar
    39     5     9    1
@<TRIPOS>MOLECULE
*****
 35 39 0 0 0
SMALL
GASTEIGER

@<TRIPOS>ATOM
      1 N          60.6570   94.4677   -0.8102 N.am    1  LEU1       -0.2602
      2 C          59.3939   94.9687   -1.4454 C.2     2  UNK2        0.2444
      3 O          59.3115   96.3836   -1.9367 O.2     2  UNK2       -0.2731
      4 C          58.2132   94.0549   -1.5893 C.3     2  UNK2        0.1494
      5 N          58.2956   92.6400   -1.0980 N.am    2  UNK2       -0.2970
      6 C          59.5588   92.1391   -0.4628 C.2     1  LEU1        0.2409
      7 O          59.6412   90.7242    0.0285 O.2     1  LEU1       -0.2733
      8 CA         60.7395   93.0529   -0.3189 C.3     1  LEU1        0.1524
      9 H          57.5207   92.0402   -1.1924 H       2  UNK2        0.1499
     10 C          56.9500   94.5558   -2.2245 C.3     2  UNK2        0.0356
     11 C          56.7064   94.7158   -3.6959 C.3     2  UNK2        0.0285
     12 C          55.3145   95.2436   -3.8806 C.ar    2  UNK2       -0.0261
     13 C          54.5289   95.5943   -5.1093 C.ar    2  UNK2       -0.0046
     14 C          53.1267   96.1113   -4.9808 C.ar    2  UNK2       -0.0003
     15 C          52.5101   96.2775   -3.6235 C.ar    2  UNK2       -0.0003
     16 C          53.2957   95.9268   -2.3948 C.ar    2  UNK2       -0.0046
     17 C          54.6979   95.4099   -2.5233 C.ar    2  UNK2       -0.0261
     18 C          55.7087   94.9848   -1.4998 C.3     2  UNK2        0.0285
     19 C          61.8378   95.3817   -0.6663 C.3     0  UNK0        0.1962
     20 C          64.9544   94.3824   -4.8099 C.3     0  UNK0        0.0950
     21 C          64.2238   95.1017   -3.7150 C.ar    0  UNK0        0.2061
     22 N          63.2956   94.4768   -2.7159 N.ar    0  UNK0       -0.2142
     23 C          62.7912   95.5610   -1.8104 C.ar    0  UNK0        0.1263
     24 C          63.4076   96.8560   -2.2498 C.ar    0  UNK0        0.1979
     25 O          64.2929   96.5722   -3.4269 O.2     0  UNK0       -0.4355
     26 C          62.0651   96.1163    0.6216 C.2     0  UNK0        0.2498
     27 O          60.9342   96.8558    1.2728 O.2     0  UNK0       -0.2727
     28 N          63.4233   96.1113    1.2583 N.am    0  UNK0       -0.2778
     29 C          64.7525   95.5060    0.9167 C.3     0  UNK0        0.0952
     30 C          65.3441   96.1042    2.1586 C.3     0  UNK0        0.0430
     31 C          64.0148   96.7096    2.5000 C.3     0  UNK0        0.0952
     32 CB         62.0026   92.5520    0.3163 C.3     1  LEU1        0.0292
     33 CG         62.1637   92.6022    1.8068 C.3     1  LEU1        0.0021
     34 CD1        60.9944   92.9590    2.6759 C.3     1  LEU1        0.0001
     35 CD2        63.4942   92.2958    2.4282 C.3     1  LEU1        0.0001
@<TRIPOS>BOND
     1    20    21    1
     2    21    22   ar
     3    22    23   ar
     4    23    19    1
     5    19    26    1
     6    26    27    2
     7    26    28   am
     8    28    29    1
     9    29    30    1
    10    30    31    1
    11    19     1    1
    12     1     2   am
    13     2     3    2
    14     2     4    1
    15     4    10    1
    16    10    11    1
    17    11    12    1
    18    12    13   ar
    19    13    14   ar
    20    14    15   ar
    21    15    16   ar
    22    16    17   ar
    23    17    18    1
    24     4     5    1
    25     5     6   am
    26     6     7    2
    27     6     8    1
    28     8    32    1
    29    32    33    1
    30    33    34    1
    31    33    35    1
    32    23    24   ar
    33    24    25   ar
    34    25    21   ar
    35    31    28    1
    36     8     1    1
    37    18    10    1
    38    17    12   ar
    39     5     9    1
@<TRIPOS>MOLECULE
*****
 35 39 0 0 0
SMALL
GASTEIGER

@<TRIPOS>ATOM
      1 N          61.1282   94.4014   -1.5441 N.am    1  LEU1       -0.2602
      2 C          60.0161   94.8719   -2.4341 C.2     2  UNK2        0.2444
      3 O          60.1743   96.1346   -3.2283 O.2     2  UNK2       -0.2731
      4 C          58.7460   94.0797   -2.5300 C.3     2  UNK2        0.1494
      5 N          58.5880   92.8170   -1.7359 N.am    2  UNK2       -0.2970
      6 C          59.7000   92.3466   -0.8459 C.2     1  LEU1        0.2409
      7 O          59.5418   91.0838   -0.0518 O.2     1  LEU1       -0.2733
      8 CA         60.9701   93.1387   -0.7500 C.3     1  LEU1        0.1524
      9 H          57.7544   92.2971   -1.7989 H       2  UNK2        0.1499
     10 C          57.6340   94.5502   -3.4200 C.3     2  UNK2        0.0356
     11 C          57.4756   94.2307   -4.8770 C.3     2  UNK2        0.0285
     12 C          56.2289   94.9058   -5.3668 C.ar    2  UNK2       -0.0261
     13 C          55.5719   94.9448   -6.7147 C.ar    2  UNK2       -0.0046
     14 C          54.3029   95.7206   -6.9082 C.ar    2  UNK2       -0.0003
     15 C          53.6907   96.4574   -5.7539 C.ar    2  UNK2       -0.0003
     16 C          54.3476   96.4183   -4.4060 C.ar    2  UNK2       -0.0046
     17 C          55.6167   95.6425   -4.2124 C.ar    2  UNK2       -0.0261
     18 C          56.4852   95.4227   -3.0093 C.3     2  UNK2        0.0285
     19 C          62.3983   95.1937   -1.4483 C.3     0  UNK0        0.1962
     20 C          65.3833   96.4687    2.7165 C.3     0  UNK0        0.0950
     21 C          64.2123   96.3311    1.7892 C.ar    0  UNK0        0.2061
     22 N          64.2196   95.6446    0.4556 N.ar    0  UNK0       -0.2142
     23 C          62.8402   95.7451   -0.1251 C.ar    0  UNK0        0.1263
     24 C          61.9804   96.4938    0.8496 C.ar    0  UNK0        0.1979
     25 O          62.8283   96.8560    2.0327 O.2     0  UNK0       -0.4355
     26 C          63.2264   95.4345   -2.6755 C.2     0  UNK0        0.2498
     27 O          63.4996   96.8368   -3.1327 O.2     0  UNK0       -0.2727
     28 N          63.7815   94.2731   -3.4456 N.am    0  UNK0       -0.2778
     29 C          63.7244   92.7810   -3.3024 C.3     0  UNK0        0.0952
     30 C          64.5664   92.6305   -4.5346 C.3     0  UNK0        0.0430
     31 C          64.6235   94.1226   -4.6777 C.3     0  UNK0        0.0952
     32 CB         62.0821   92.6683    0.1399 C.3     1  LEU1        0.0292
     33 CG         61.9891   92.8647    1.6241 C.3     1  LEU1        0.0021
     34 CD1        63.1577   92.5239    2.5005 C.3     1  LEU1        0.0001
     35 CD2        60.7273   93.4020    2.2319 C.3     1  LEU1        0.0001
@<TRIPOS>BOND
     1    20    21    1
     2    21    22   ar
     3    22    23   ar
     4    23    19    1
     5    19    26    1
     6    26    27    2
     7    26    28   am
     8    28    29    1
     9    29    30    1
    10    30    31    1
    11    19     1    1
    12     1     2   am
    13     2     3    2
    14     2     4    1
    15     4    10    1
    16    10    11    1
    17    11    12    1
    18    12    13   ar
    19    13    14   ar
    20    14    15   ar
    21    15    16   ar
    22    16    17   ar
    23    17    18    1
    24     4     5    1
    25     5     6   am
    26     6     7    2
    27     6     8    1
    28     8    32    1
    29    32    33    1
    30    33    34    1
    31    33    35    1
    32    23    24   ar
    33    24    25   ar
    34    25    21   ar
    35    31    28    1
    36     8     1    1
    37    18    10    1
    38    17    12   ar
    39     5     9    1
@<TRIPOS>MOLECULE
*****
 35 39 0 0 0
SMALL
GASTEIGER

@<TRIPOS>ATOM
      1 N          64.0554   90.7276   13.0200 N.am    1  LEU1       -0.2602
      2 C          63.2245   89.7612   12.2289 C.2     2  UNK2        0.2444
      3 O          62.6634   88.5376   12.8909 O.2     2  UNK2       -0.2731
      4 C          62.9548   90.0183   10.7760 C.3     2  UNK2        0.1494
      5 N          63.5159   91.2418   10.1141 N.am    2  UNK2       -0.2970
      6 C          64.3468   92.2082   10.9052 C.2     1  LEU1        0.2409
      7 O          64.9079   93.4318   10.2432 O.2     1  LEU1       -0.2733
      8 CA         64.6165   91.9511   12.3581 C.3     1  LEU1        0.1524
      9 H          63.3389   91.4106    9.1605 H       2  UNK2        0.1499
     10 C          62.1239   89.0519    9.9849 C.3     2  UNK2        0.0356
     11 C          60.7259   89.2866    9.4947 C.3     2  UNK2        0.0285
     12 C          60.2831   88.0609    8.7520 C.ar    2  UNK2       -0.0261
     13 C          59.0014   87.7202    8.0513 C.ar    2  UNK2       -0.0046
     14 C          58.8441   86.3871    7.3818 C.ar    2  UNK2       -0.0003
     15 C          59.9686   85.3949    7.4130 C.ar    2  UNK2       -0.0003
     16 C          61.2504   85.7356    8.1136 C.ar    2  UNK2       -0.0046
     17 C          61.4076   87.0687    8.7831 C.ar    2  UNK2       -0.0261
     18 C          62.5453   87.6812    9.5451 C.3     2  UNK2        0.0285
     19 C          64.3251   90.4704   14.4730 C.3     0  UNK0        0.1962
     20 C          69.0040   92.3958   15.9836 C.3     0  UNK0        0.0950
     21 C          67.5280   92.1465   15.8863 C.ar    0  UNK0        0.2061
     22 N          66.8556   91.1887   14.9479 N.ar    0  UNK0       -0.2142
     23 C          65.3774   91.2615   15.1920 C.ar    0  UNK0        0.1263
     24 C          65.1362   92.2642   16.2812 C.ar    0  UNK0        0.1979
     25 O          66.4654   92.8112   16.7103 O.2     0  UNK0       -0.4355
     26 C          63.5425   89.4222   15.2070 C.2     0  UNK0        0.2498
     27 O          62.2798   89.7950   15.9259 O.2     0  UNK0       -0.2727
     28 N          64.0226   88.0011   15.2222 N.am    0  UNK0       -0.2778
     29 C          65.1970   87.2721   14.6398 C.3     0  UNK0        0.0952
     30 C          64.7015   85.9915   15.2436 C.3     0  UNK0        0.0430
     31 C          63.5271   86.7206   15.8260 C.3     0  UNK0        0.0952
     32 CB         65.4473   92.9175   13.1492 C.3     1  LEU1        0.0292
     33 CG         66.5926   93.6321   12.4954 C.3     1  LEU1        0.0021
     34 CD1        66.5429   95.1203   12.3143 C.3     1  LEU1        0.0001
     35 CD2        67.7878   92.8586   12.0227 C.3     1  LEU1        0.0001
@<TRIPOS>BOND
     1    20    21    1
     2    21    22   ar
     3    22    23   ar
     4    23    19    1
     5    19    26    1
     6    26    27    2
     7    26    28   am
     8    28    29    1
     9    29    30    1
    10    30    31    1
    11    19     1    1
    12     1     2   am
    13     2     3    2
    14     2     4    1
    15     4    10    1
    16    10    11    1
    17    11    12    1
    18    12    13   ar
    19    13    14   ar
    20    14    15   ar
    21    15    16   ar
    22    16    17   ar
    23    17    18    1
    24     4     5    1
    25     5     6   am
    26     6     7    2
    27     6     8    1
    28     8    32    1
    29    32    33    1
    30    33    34    1
    31    33    35    1
    32    23    24   ar
    33    24    25   ar
    34    25    21   ar
    35    31    28    1
    36     8     1    1
    37    18    10    1
    38    17    12   ar
    39     5     9    1
@<TRIPOS>MOLECULE
*****
 35 39 0 0 0
SMALL
GASTEIGER

@<TRIPOS>ATOM
      1 N          60.5470   94.6336   -1.6532 N.am    1  LEU1       -0.2602
      2 C          59.6655   93.6804   -2.4045 C.2     2  UNK2        0.2444
      3 O          60.2756   92.6219   -3.2748 O.2     2  UNK2       -0.2731
      4 C          58.1740   93.7857   -2.2855 C.3     2  UNK2        0.1494
      5 N          57.5640   94.8442   -1.4152 N.am    2  UNK2       -0.2970
      6 C          58.4455   95.7974   -0.6640 C.2     1  LEU1        0.2409
      7 O          57.8353   96.8559    0.2063 O.2     1  LEU1       -0.2733
      8 CA         59.9370   95.6921   -0.7830 C.3     1  LEU1        0.1524
      9 H          56.5850   94.9133   -1.3371 H       2  UNK2        0.1499
     10 C          57.2925   92.8325   -3.0367 C.3     2  UNK2        0.0356
     11 C          56.5996   91.6327   -2.4619 C.3     2  UNK2        0.0285
     12 C          55.8280   90.9704   -3.5646 C.ar    2  UNK2       -0.0261
     13 C          54.9566   89.7497   -3.5870 C.ar    2  UNK2       -0.0046
     14 C          54.3012   89.3195   -4.8657 C.ar    2  UNK2       -0.0003
     15 C          54.5172   90.1099   -6.1221 C.ar    2  UNK2       -0.0003
     16 C          55.3886   91.3306   -6.0998 C.ar    2  UNK2       -0.0046
     17 C          56.0440   91.7609   -4.8210 C.ar    2  UNK2       -0.0261
     18 C          56.9491   92.9117   -4.4947 C.3     2  UNK2        0.0285
     19 C          62.0386   94.5283   -1.7723 C.3     0  UNK0        0.1962
     20 C          63.4284   91.9058    2.5949 C.3     0  UNK0        0.0950
     21 C          63.4844   92.7793    1.3768 C.ar    0  UNK0        0.2061
     22 N          62.3443   93.0682    0.4458 N.ar    0  UNK0       -0.2142
     23 C          62.8456   93.9847   -0.6306 C.ar    0  UNK0        0.1263
     24 C          64.2955   94.2624   -0.3649 C.ar    0  UNK0        0.1979
     25 O          64.6903   93.5174    0.8758 O.2     0  UNK0       -0.4355
     26 C          62.7232   94.9664   -3.0330 C.2     0  UNK0        0.2498
     27 O          62.6256   96.3943   -3.4820 O.2     0  UNK0       -0.2727
     28 N          63.5054   93.9767   -3.8446 N.am    0  UNK0       -0.2778
     29 C          63.8188   92.5151   -3.7204 C.3     0  UNK0        0.0952
     30 C          64.6115   92.5770   -4.9924 C.3     0  UNK0        0.0430
     31 C          64.2981   94.0387   -5.1164 C.3     0  UNK0        0.0952
     32 CB         60.8185   96.6453   -0.0317 C.3     1  LEU1        0.0292
     33 CG         61.2648   96.3146    1.3616 C.3     1  LEU1        0.0021
     34 CD1        60.4082   95.4501    2.2383 C.3     1  LEU1        0.0001
     35 CD2        62.5680   96.8486    1.8782 C.3     1  LEU1        0.0001
@<TRIPOS>BOND
     1    20    21    1
     2    21    22   ar
     3    22    23   ar
     4    23    19    1
     5    19    26    1
     6    26    27    2
     7    26    28   am
     8    28    29    1
     9    29    30    1
    10    30    31    1
    11    19     1    1
    12     1     2   am
    13     2     3    2
    14     2     4    1
    15     4    10    1
    16    10    11    1
    17    11    12    1
    18    12    13   ar
    19    13    14   ar
    20    14    15   ar
    21    15    16   ar
    22    16    17   ar
    23    17    18    1
    24     4     5    1
    25     5     6   am
    26     6     7    2
    27     6     8    1
    28     8    32    1
    29    32    33    1
    30    33    34    1
    31    33    35    1
    32    23    24   ar
    33    24    25   ar
    34    25    21   ar
    35    31    28    1
    36     8     1    1
    37    18    10    1
    38    17    12   ar
    39     5     9    1
