@<TRIPOS>MOLECULE
*****
 29 32 0 0 0
SMALL
GASTEIGER

@<TRIPOS>ATOM
      1 C          62.4516   88.8167   11.5247 C.ar    1  UNL1        0.0764
      2 C          62.7417   89.8593   10.4860 C.ar    1  UNL1        0.0176
      3 C          63.6515   91.0071   10.8093 C.ar    1  UNL1        0.0175
      4 C          64.2713   91.1124   12.1712 C.ar    1  UNL1        0.0705
      5 C          63.9812   90.0698   13.2099 C.ar    1  UNL1        0.0724
      6 N          63.0714   88.9219   12.8866 N.ar    1  UNL1       -0.2511
      7 C          64.6010   90.1751   14.5718 C.3     1  UNL1        0.0489
      8 C          65.5108   91.3229   14.8950 C.3     1  UNL1        0.0283
      9 C          65.8009   92.3656   13.8564 C.3     1  UNL1        0.1020
     10 N          65.1812   92.2603   12.4945 N.am    1  UNL1       -0.2239
     11 C          65.4712   93.3029   11.4558 C.2     1  UNL1        0.4086
     12 O          64.8515   93.1977   10.0939 O.2     1  UNL1       -0.2258
     13 C          60.4678   87.8312   10.1669 C.3     1  UNL1        0.0278
     14 C          61.5417   87.6687   11.2014 C.3     1  UNL1        0.1121
     15 N          61.7058   86.3583   11.9128 N.am    1  UNL1       -0.2973
     16 C          62.3866   85.2120   11.2255 C.2     1  UNL1        0.2461
     17 O          62.9034   85.3760    9.8269 O.2     1  UNL1       -0.2701
     18 H          61.3666   86.2507   12.8307 H       1  UNL1        0.1500
     19 C          62.5507   83.9016   11.9369 C.ar    1  UNL1        0.0535
     20 C          62.8483   82.6562   11.1555 C.ar    1  UNL1        0.0068
     21 C          63.0124   81.3458   11.8668 C.ar    1  UNL1        0.0298
     22 C          62.8789   81.2809   13.3595 C.ar    1  UNL1        0.1401
     23 F          63.0430   79.9705   14.0709 F       1  UNL1       -0.2042
     24 C          62.5813   82.5263   14.1408 C.ar    1  UNL1        0.0298
     25 C          62.4172   83.8366   13.4295 C.ar    1  UNL1        0.0068
     26 O          66.3811   94.4509   11.7791 O.3     1  UNL1       -0.4381
     27 C          66.7544   95.4357   10.7111 C.3     1  UNL1        0.1707
     28 C          67.2592   95.7232    9.3282 C.3     1  UNL1        0.0474
     29 C          66.8962   96.8541   10.2442 C.3     1  UNL1        0.0474
@<TRIPOS>BOND
     1    14    13    1
     2    14    15    1
     3    15    16   am
     4    16    17    2
     5    16    19    1
     6    19    20   ar
     7    20    21   ar
     8    21    22   ar
     9    22    23    1
    10    22    24   ar
    11    24    25   ar
    12    14     1    1
    13     1     2   ar
    14     2     3   ar
    15     3     4   ar
    16     4     5   ar
    17     5     6   ar
    18     5     7    1
    19     7     8    1
    20     8     9    1
    21     9    10    1
    22    10    11   am
    23    11    12    2
    24    11    26    1
    25    26    27    1
    26    27    28    1
    27    28    29    1
    28    25    19   ar
    29     6     1   ar
    30    29    27    1
    31    10     4    1
    32    15    18    1
@<TRIPOS>MOLECULE
*****
 29 32 0 0 0
SMALL
GASTEIGER

@<TRIPOS>ATOM
      1 C          63.9210   89.0015   13.7933 C.ar    1  UNL1        0.0764
      2 C          64.5246   87.9555   14.6829 C.ar    1  UNL1        0.0176
      3 C          64.3758   86.5028   14.3403 C.ar    1  UNL1        0.0175
      4 C          63.6234   86.0961   13.1081 C.ar    1  UNL1        0.0705
      5 C          63.0198   87.1421   12.2184 C.ar    1  UNL1        0.0724
      6 N          63.1686   88.5948   12.5610 N.ar    1  UNL1       -0.2511
      7 C          62.2673   86.7354   10.9862 C.3     1  UNL1        0.0489
      8 C          62.1185   85.2827   10.6436 C.3     1  UNL1        0.0283
      9 C          62.7221   84.2366   11.5332 C.3     1  UNL1        0.1020
     10 N          63.4745   84.6433   12.7655 N.am    1  UNL1       -0.2239
     11 C          64.0781   83.5973   13.6551 C.2     1  UNL1        0.4086
     12 O          64.8306   84.0040   14.8874 O.2     1  UNL1       -0.2258
     13 C          63.7976   90.9271   15.5330 C.3     1  UNL1        0.0278
     14 C          64.0699   90.4543   14.1358 C.3     1  UNL1        0.1121
     15 N          64.4910   91.4343   13.0811 N.am    1  UNL1       -0.2973
     16 C          65.9133   91.9069   13.0215 C.2     1  UNL1        0.2461
     17 O          66.9146   91.3996   14.0167 O.2     1  UNL1       -0.2701
     18 H          63.8339   91.7672   12.4280 H       1  UNL1        0.1500
     19 C          66.3344   92.8868   11.9668 C.ar    1  UNL1        0.0535
     20 C          66.0648   94.3507   12.1526 C.ar    1  UNL1        0.0068
     21 C          66.4859   95.3306   11.0979 C.ar    1  UNL1        0.0298
     22 C          67.1767   94.8467    9.8575 C.ar    1  UNL1        0.1401
     23 F          67.5979   95.8266    8.8028 F       1  UNL1       -0.2042
     24 C          67.4463   93.3829    9.6717 C.ar    1  UNL1        0.0298
     25 C          67.0252   92.4030   10.7264 C.ar    1  UNL1        0.0068
     26 O          63.9293   82.1445   13.3125 O.3     1  UNL1       -0.4381
     27 C          62.6473   81.4290   13.6199 C.3     1  UNL1        0.1707
     28 C          61.7945   80.1978   13.5362 C.3     1  UNL1        0.0474
     29 C          61.2797   81.4207   14.2359 C.3     1  UNL1        0.0474
@<TRIPOS>BOND
     1    14    13    1
     2    14    15    1
     3    15    16   am
     4    16    17    2
     5    16    19    1
     6    19    20   ar
     7    20    21   ar
     8    21    22   ar
     9    22    23    1
    10    22    24   ar
    11    24    25   ar
    12    14     1    1
    13     1     2   ar
    14     2     3   ar
    15     3     4   ar
    16     4     5   ar
    17     5     6   ar
    18     5     7    1
    19     7     8    1
    20     8     9    1
    21     9    10    1
    22    10    11   am
    23    11    12    2
    24    11    26    1
    25    26    27    1
    26    27    28    1
    27    28    29    1
    28    25    19   ar
    29     6     1   ar
    30    29    27    1
    31    10     4    1
    32    15    18    1
@<TRIPOS>MOLECULE
*****
 29 32 0 0 0
SMALL
GASTEIGER

@<TRIPOS>ATOM
      1 C          63.8741   89.5494   13.2433 C.ar    1  UNL1        0.0764
      2 C          64.2061   88.3245   14.0427 C.ar    1  UNL1        0.0176
      3 C          63.7678   86.9732   13.5613 C.ar    1  UNL1        0.0175
      4 C          62.9975   86.8468   12.2804 C.ar    1  UNL1        0.0705
      5 C          62.6655   88.0718   11.4810 C.ar    1  UNL1        0.0724
      6 N          63.1038   89.4231   11.9624 N.ar    1  UNL1       -0.2511
      7 C          61.8952   87.9454   10.2001 C.3     1  UNL1        0.0489
      8 C          61.4569   86.5941    9.7187 C.3     1  UNL1        0.0283
      9 C          61.7889   85.3691   10.5181 C.3     1  UNL1        0.1020
     10 N          62.5592   85.4954   11.7990 N.am    1  UNL1       -0.2239
     11 C          62.8912   84.2705   12.5985 C.2     1  UNL1        0.4086
     12 O          63.6615   84.3968   13.8794 O.2     1  UNL1       -0.2258
     13 C          64.3798   91.1876   15.1954 C.3     1  UNL1        0.0278
     14 C          64.3124   90.9009   13.7246 C.3     1  UNL1        0.1121
     15 N          64.6833   91.9655   12.7352 N.am    1  UNL1       -0.2973
     16 C          66.1221   92.3443   12.5451 C.2     1  UNL1        0.2461
     17 O          67.1902   91.6584   13.3445 O.2     1  UNL1       -0.2701
     18 H          63.9823   92.4156   12.2106 H       1  UNL1        0.1500
     19 C          66.4930   93.4089   11.5557 C.ar    1  UNL1        0.0535
     20 C          67.1809   93.0364   10.2757 C.ar    1  UNL1        0.0068
     21 C          67.5517   94.1011    9.2863 C.ar    1  UNL1        0.0298
     22 C          67.2348   95.5382    9.5768 C.ar    1  UNL1        0.1401
     23 F          67.6056   96.6028    8.5873 F       1  UNL1       -0.2042
     24 C          66.5470   95.9106   10.8567 C.ar    1  UNL1        0.0298
     25 C          66.1761   94.8460   11.8461 C.ar    1  UNL1        0.0068
     26 O          62.4529   82.9191   12.1171 O.3     1  UNL1       -0.4381
     27 C          62.2293   81.8087   13.1006 C.3     1  UNL1        0.1707
     28 C          62.6456   80.4954   13.6937 C.3     1  UNL1        0.0474
     29 C          61.4259   81.1989   14.2108 C.3     1  UNL1        0.0474
@<TRIPOS>BOND
     1    14    13    1
     2    14    15    1
     3    15    16   am
     4    16    17    2
     5    16    19    1
     6    19    20   ar
     7    20    21   ar
     8    21    22   ar
     9    22    23    1
    10    22    24   ar
    11    24    25   ar
    12    14     1    1
    13     1     2   ar
    14     2     3   ar
    15     3     4   ar
    16     4     5   ar
    17     5     6   ar
    18     5     7    1
    19     7     8    1
    20     8     9    1
    21     9    10    1
    22    10    11   am
    23    11    12    2
    24    11    26    1
    25    26    27    1
    26    27    28    1
    27    28    29    1
    28    25    19   ar
    29     6     1   ar
    30    29    27    1
    31    10     4    1
    32    15    18    1
@<TRIPOS>MOLECULE
*****
 29 32 0 0 0
SMALL
GASTEIGER

@<TRIPOS>ATOM
      1 C          62.8139   89.0177   11.6922 C.ar    1  UNL1        0.0764
      2 C          63.3218   89.0968   13.1014 C.ar    1  UNL1        0.0176
      3 C          64.1794   90.2520   13.5257 C.ar    1  UNL1        0.0175
      4 C          64.5291   91.3280   12.5409 C.ar    1  UNL1        0.0705
      5 C          64.0212   91.2489   11.1317 C.ar    1  UNL1        0.0724
      6 N          63.1636   90.0938   10.7074 N.ar    1  UNL1       -0.2511
      7 C          64.3708   92.3250   10.1469 C.3     1  UNL1        0.0489
      8 C          65.2284   93.4801   10.5713 C.3     1  UNL1        0.0283
      9 C          65.7364   93.5593   11.9805 C.3     1  UNL1        0.1020
     10 N          65.3868   92.4832   12.9653 N.am    1  UNL1       -0.2239
     11 C          65.8947   92.5623   14.3744 C.2     1  UNL1        0.4086
     12 O          65.5450   91.4863   15.3592 O.2     1  UNL1       -0.2258
     13 C          60.9786   88.0280   10.1424 C.3     1  UNL1        0.0278
     14 C          61.9563   87.8625   11.2679 C.3     1  UNL1        0.1121
     15 N          62.0764   86.5419   11.9690 N.am    1  UNL1       -0.2973
     16 C          62.5336   85.3300   11.2126 C.2     1  UNL1        0.2461
     17 O          62.8708   85.4387    9.7549 O.2     1  UNL1       -0.2701
     18 H          61.8551   86.4706   12.9256 H       1  UNL1        0.1500
     19 C          62.6537   84.0094   11.9137 C.ar    1  UNL1        0.0535
     20 C          62.4972   83.9343   13.4037 C.ar    1  UNL1        0.0068
     21 C          62.6173   82.6137   14.1048 C.ar    1  UNL1        0.0298
     22 C          62.8940   81.3682   13.3159 C.ar    1  UNL1        0.1401
     23 F          63.0141   80.0476   14.0170 F       1  UNL1       -0.2042
     24 C          63.0505   81.4433   11.8260 C.ar    1  UNL1        0.0298
     25 C          62.9304   82.7639   11.1249 C.ar    1  UNL1        0.0068
     26 O          66.7523   93.7175   14.7988 O.3     1  UNL1       -0.4381
     27 C          68.0471   93.4675   15.5136 C.3     1  UNL1        0.1707
     28 C          69.3184   93.9858   16.1179 C.3     1  UNL1        0.0474
     29 C          69.0185   92.5164   16.1473 C.3     1  UNL1        0.0474
@<TRIPOS>BOND
     1    14    13    1
     2    14    15    1
     3    15    16   am
     4    16    17    2
     5    16    19    1
     6    19    20   ar
     7    20    21   ar
     8    21    22   ar
     9    22    23    1
    10    22    24   ar
    11    24    25   ar
    12    14     1    1
    13     1     2   ar
    14     2     3   ar
    15     3     4   ar
    16     4     5   ar
    17     5     6   ar
    18     5     7    1
    19     7     8    1
    20     8     9    1
    21     9    10    1
    22    10    11   am
    23    11    12    2
    24    11    26    1
    25    26    27    1
    26    27    28    1
    27    28    29    1
    28    25    19   ar
    29     6     1   ar
    30    29    27    1
    31    10     4    1
    32    15    18    1
@<TRIPOS>MOLECULE
*****
 29 32 0 0 0
SMALL
GASTEIGER

@<TRIPOS>ATOM
      1 C          62.2358   90.2434   11.7481 C.ar    1  UNL1        0.0764
      2 C          62.6222   90.3503   13.1934 C.ar    1  UNL1        0.0176
      3 C          63.7789   91.2152   13.5985 C.ar    1  UNL1        0.0175
      4 C          64.5490   91.9732   12.5582 C.ar    1  UNL1        0.0705
      5 C          64.1626   91.8662   11.1128 C.ar    1  UNL1        0.0724
      6 N          63.0060   91.0013   10.7077 N.ar    1  UNL1       -0.2511
      7 C          64.9328   92.6242   10.0725 C.3     1  UNL1        0.0489
      8 C          66.0894   93.4891   10.4775 C.3     1  UNL1        0.0283
      9 C          66.4759   93.5961   11.9230 C.3     1  UNL1        0.1020
     10 N          65.7057   92.8381   12.9633 N.am    1  UNL1       -0.2239
     11 C          66.0921   92.9451   14.4087 C.2     1  UNL1        0.4086
     12 O          65.3219   92.1871   15.4490 O.2     1  UNL1       -0.2258
     13 C          59.8385   89.3424   12.1851 C.3     1  UNL1        0.0278
     14 C          61.0792   89.3784   11.3429 C.3     1  UNL1        0.1121
     15 N          61.1633   88.5495   10.0956 N.am    1  UNL1       -0.2973
     16 C          61.4719   87.0845   10.1880 C.2     1  UNL1        0.2461
     17 O          61.6964   86.4484   11.5278 O.2     1  UNL1       -0.2701
     18 H          61.0159   88.9670    9.2162 H       1  UNL1        0.1500
     19 C          61.5560   86.2556    8.9407 C.ar    1  UNL1        0.0535
     20 C          62.8391   85.5654    8.5840 C.ar    1  UNL1        0.0068
     21 C          62.9233   84.7365    7.3366 C.ar    1  UNL1        0.0298
     22 C          61.7242   84.5978    6.4460 C.ar    1  UNL1        0.1401
     23 F          61.8083   83.7689    5.1987 F       1  UNL1       -0.2042
     24 C          60.4412   85.2881    6.8027 C.ar    1  UNL1        0.0298
     25 C          60.3570   86.1170    8.0500 C.ar    1  UNL1        0.0068
     26 O          67.2488   93.8100   14.8138 O.3     1  UNL1       -0.4381
     27 C          68.3575   93.2380   15.6466 C.3     1  UNL1        0.1707
     28 C          69.6869   93.3940   16.3236 C.3     1  UNL1        0.0474
     29 C          68.9485   92.0913   16.4119 C.3     1  UNL1        0.0474
@<TRIPOS>BOND
     1    14    13    1
     2    14    15    1
     3    15    16   am
     4    16    17    2
     5    16    19    1
     6    19    20   ar
     7    20    21   ar
     8    21    22   ar
     9    22    23    1
    10    22    24   ar
    11    24    25   ar
    12    14     1    1
    13     1     2   ar
    14     2     3   ar
    15     3     4   ar
    16     4     5   ar
    17     5     6   ar
    18     5     7    1
    19     7     8    1
    20     8     9    1
    21     9    10    1
    22    10    11   am
    23    11    12    2
    24    11    26    1
    25    26    27    1
    26    27    28    1
    27    28    29    1
    28    25    19   ar
    29     6     1   ar
    30    29    27    1
    31    10     4    1
    32    15    18    1
@<TRIPOS>MOLECULE
*****
 29 32 0 0 0
SMALL
GASTEIGER

@<TRIPOS>ATOM
      1 C          63.0115   90.1533   10.8370 C.ar    1  UNL1        0.0764
      2 C          63.2432   89.9982   12.3108 C.ar    1  UNL1        0.0176
      3 C          64.1239   90.9705   13.0380 C.ar    1  UNL1        0.0175
      4 C          64.7731   92.0979   12.2913 C.ar    1  UNL1        0.0705
      5 C          64.5414   92.2530   10.8175 C.ar    1  UNL1        0.0724
      6 N          63.6606   91.2807   10.0903 N.ar    1  UNL1       -0.2511
      7 C          65.1905   93.3805   10.0708 C.3     1  UNL1        0.0489
      8 C          66.0713   94.3528   10.7979 C.3     1  UNL1        0.0283
      9 C          66.3030   94.1977   12.2719 C.3     1  UNL1        0.1020
     10 N          65.6539   93.0702   13.0185 N.am    1  UNL1       -0.2239
     11 C          65.8856   92.9151   14.4924 C.2     1  UNL1        0.4086
     12 O          65.2365   91.7877   15.2390 O.2     1  UNL1       -0.2258
     13 C          60.8083   89.6308    9.5630 C.3     1  UNL1        0.0278
     14 C          62.1307   89.1810   10.1098 C.3     1  UNL1        0.1121
     15 N          62.5722   87.7588    9.9294 N.am    1  UNL1       -0.2973
     16 C          62.1172   86.7041   10.8940 C.2     1  UNL1        0.2461
     17 O          61.2206   87.0715   12.0391 O.2     1  UNL1       -0.2701
     18 H          63.1607   87.5177    9.1779 H       1  UNL1        0.1500
     19 C          62.5588   85.2820   10.7136 C.ar    1  UNL1        0.0535
     20 C          62.4021   84.2998   11.8366 C.ar    1  UNL1        0.0068
     21 C          62.8437   82.8777   11.6562 C.ar    1  UNL1        0.0298
     22 C          63.4420   82.4377   10.3529 C.ar    1  UNL1        0.1401
     23 F          63.8836   81.0156   10.1725 F       1  UNL1       -0.2042
     24 C          63.5987   83.4199    9.2301 C.ar    1  UNL1        0.0298
     25 C          63.1571   84.8420    9.4104 C.ar    1  UNL1        0.0068
     26 O          66.7664   93.8874   15.2196 O.3     1  UNL1       -0.4381
     27 C          68.1252   93.4612   15.6906 C.3     1  UNL1        0.1707
     28 C          69.0427   92.3988   16.2193 C.3     1  UNL1        0.0474
     29 C          69.5613   93.7854   15.9778 C.3     1  UNL1        0.0474
@<TRIPOS>BOND
     1    14    13    1
     2    14    15    1
     3    15    16   am
     4    16    17    2
     5    16    19    1
     6    19    20   ar
     7    20    21   ar
     8    21    22   ar
     9    22    23    1
    10    22    24   ar
    11    24    25   ar
    12    14     1    1
    13     1     2   ar
    14     2     3   ar
    15     3     4   ar
    16     4     5   ar
    17     5     6   ar
    18     5     7    1
    19     7     8    1
    20     8     9    1
    21     9    10    1
    22    10    11   am
    23    11    12    2
    24    11    26    1
    25    26    27    1
    26    27    28    1
    27    28    29    1
    28    25    19   ar
    29     6     1   ar
    30    29    27    1
    31    10     4    1
    32    15    18    1
@<TRIPOS>MOLECULE
*****
 29 32 0 0 0
SMALL
GASTEIGER

@<TRIPOS>ATOM
      1 C          62.7119   89.1141   11.9505 C.ar    1  UNL1        0.0764
      2 C          63.5259   90.1287   11.2036 C.ar    1  UNL1        0.0176
      3 C          64.3135   91.1597   11.9564 C.ar    1  UNL1        0.0175
      4 C          64.2871   91.1760   13.4561 C.ar    1  UNL1        0.0705
      5 C          63.4731   90.1614   14.2030 C.ar    1  UNL1        0.0724
      6 N          62.6855   89.1304   13.4501 N.ar    1  UNL1       -0.2511
      7 C          63.4467   90.1777   15.7026 C.3     1  UNL1        0.0489
      8 C          64.2343   91.2086   16.4554 C.3     1  UNL1        0.0283
      9 C          65.0484   92.2233   15.7086 C.3     1  UNL1        0.1020
     10 N          65.0748   92.2070   14.2089 N.am    1  UNL1       -0.2239
     11 C          65.8888   93.2216   13.4620 C.2     1  UNL1        0.4086
     12 O          65.9152   93.2053   11.9623 O.2     1  UNL1       -0.2258
     13 C          61.0223   88.5011   10.0744 C.3     1  UNL1        0.0278
     14 C          61.9242   88.0831   11.1977 C.3     1  UNL1        0.1121
     15 N          62.0384   86.6341   11.5682 N.am    1  UNL1       -0.2973
     16 C          62.6196   85.6541   10.5927 C.2     1  UNL1        0.2461
     17 O          63.0866   86.1230    9.2465 O.2     1  UNL1       -0.2701
     18 H          61.7319   86.3263   12.4517 H       1  UNL1        0.1500
     19 C          62.7339   84.2050   10.9632 C.ar    1  UNL1        0.0535
     20 C          63.3416   83.2300    9.9989 C.ar    1  UNL1        0.0068
     21 C          63.4559   81.7810   10.3694 C.ar    1  UNL1        0.0298
     22 C          62.9624   81.3070   11.7043 C.ar    1  UNL1        0.1401
     23 F          63.0766   79.8580   12.0749 F       1  UNL1       -0.2042
     24 C          62.3546   82.2821   12.6686 C.ar    1  UNL1        0.0298
     25 C          62.2404   83.7311   12.2980 C.ar    1  UNL1        0.0068
     26 O          66.6765   94.2526   14.2148 O.3     1  UNL1       -0.4381
     27 C          67.7925   93.8282   15.1227 C.3     1  UNL1        0.1707
     28 C          68.5653   92.7427   15.8116 C.3     1  UNL1        0.0474
     29 C          68.9528   94.1786   16.0065 C.3     1  UNL1        0.0474
@<TRIPOS>BOND
     1    14    13    1
     2    14    15    1
     3    15    16   am
     4    16    17    2
     5    16    19    1
     6    19    20   ar
     7    20    21   ar
     8    21    22   ar
     9    22    23    1
    10    22    24   ar
    11    24    25   ar
    12    14     1    1
    13     1     2   ar
    14     2     3   ar
    15     3     4   ar
    16     4     5   ar
    17     5     6   ar
    18     5     7    1
    19     7     8    1
    20     8     9    1
    21     9    10    1
    22    10    11   am
    23    11    12    2
    24    11    26    1
    25    26    27    1
    26    27    28    1
    27    28    29    1
    28    25    19   ar
    29     6     1   ar
    30    29    27    1
    31    10     4    1
    32    15    18    1
