@<TRIPOS>MOLECULE
*****
 34 37 0 0 0
SMALL
GASTEIGER

@<TRIPOS>ATOM
      1 C          63.0996   87.3686   12.2575 C.ar    1  UNL1        0.1390
      2 C          63.2270   85.9113   12.5888 C.ar    1  UNL1        0.0733
      3 C          62.4917   84.8896   11.7731 C.ar    1  UNL1        0.1679
      4 N          61.6288   85.3253   10.6261 N.ar    1  UNL1       -0.2047
      5 C          61.5013   86.7827   10.2948 C.ar    1  UNL1        0.2001
      6 N          62.2367   87.8044   11.1105 N.ar    1  UNL1       -0.2088
      7 N          62.6191   83.4322   12.1044 N.ar    1  UNL1       -0.2164
      8 N          61.9813   82.7336   13.2685 N.ar    1  UNL1       -0.1684
      9 C          62.3748   81.2872   13.2134 C.ar    1  UNL1        0.0805
     10 C          61.9601   80.2229   14.1857 C.3     1  UNL1        0.0540
     11 C          63.2558   81.0918   12.0152 C.ar    1  UNL1        0.0312
     12 C          63.4068   82.4175   11.3298 C.ar    1  UNL1        0.0637
     13 C          64.2053   82.6821   10.0879 C.3     1  UNL1        0.0522
     14 C          60.6385   87.2184    9.1478 C.ar    1  UNL1        0.1805
     15 C          59.7222   86.3388    8.3500 C.ar    1  UNL1        0.0434
     16 C          59.0578   87.1869    7.3063 C.ar    1  UNL1        0.0362
     17 C          59.5636   88.5909    7.4591 C.ar    1  UNL1        0.1234
     18 C          59.1627   89.7685    6.6210 C.3     1  UNL1        0.0725
     19 O          60.5404   88.6103    8.5972 O.2     1  UNL1       -0.4546
     20 C          63.1111   89.5961   13.5948 C.2     1  UNL1        0.2316
     21 O          61.6517   89.7802   13.3007 O.2     1  UNL1       -0.2744
     22 N          63.8350   88.3903   13.0732 N.am    1  UNL1       -0.2689
     23 H          64.7928   88.2695   13.2663 H       1  UNL1        0.1563
     24 C          63.8465   90.6177   14.4105 C.3     1  UNL1        0.1119
     25 C          67.3231   92.4650   13.9095 C.ar    1  UNL1        0.1415
     26 C          66.2249   91.6560   14.5336 C.ar    1  UNL1        0.0333
     27 C          64.9447   91.4268   13.7863 C.ar    1  UNL1       -0.0071
     28 C          64.7626   92.0065   12.4150 C.ar    1  UNL1        0.0333
     29 C          65.8607   92.8155   11.7909 C.ar    1  UNL1        0.1415
     30 C          67.1410   93.0447   12.5381 C.ar    1  UNL1        0.0737
     31 C          68.6252   93.6115   15.8434 C.3     1  UNL1        0.2525
     32 O          68.6033   92.6942   14.6568 O.3     1  UNL1       -0.4713
     33 O          65.6787   93.3953   10.4194 O.3     1  UNL1       -0.4713
     34 C          66.8552   93.9649    9.6837 C.3     1  UNL1        0.2525
@<TRIPOS>BOND
     1    31    32    1
     2    32    25    1
     3    25    26   ar
     4    26    27   ar
     5    27    24    1
     6    24    20    1
     7    20    21    2
     8    20    22   am
     9    22     1    1
    10     1     2   ar
    11     2     3   ar
    12     3     7    1
    13     7     8   ar
    14     8     9   ar
    15     9    10    1
    16     9    11   ar
    17    11    12   ar
    18    12    13    1
    19     3     4   ar
    20     4     5   ar
    21     5    14    1
    22    14    15   ar
    23    15    16   ar
    24    16    17   ar
    25    17    18    1
    26    17    19   ar
    27     5     6   ar
    28    27    28   ar
    29    28    29   ar
    30    29    33    1
    31    33    34    1
    32    29    30   ar
    33    30    25   ar
    34     6     1   ar
    35    12     7   ar
    36    19    14   ar
    37    22    23    1
@<TRIPOS>MOLECULE
*****
 34 37 0 0 0
SMALL
GASTEIGER

@<TRIPOS>ATOM
      1 C          63.0970   87.3940   12.2500 C.ar    1  UNL1        0.1390
      2 C          63.2251   85.9377   12.5859 C.ar    1  UNL1        0.0733
      3 C          62.4884   84.9133   11.7748 C.ar    1  UNL1        0.1679
      4 N          61.6237   85.3451   10.6278 N.ar    1  UNL1       -0.2047
      5 C          61.4956   86.8014   10.2918 C.ar    1  UNL1        0.2001
      6 N          62.2322   87.8259   11.1029 N.ar    1  UNL1       -0.2088
      7 N          62.6166   83.4570   12.1108 N.ar    1  UNL1       -0.2164
      8 N          61.9774   82.7614   13.2760 N.ar    1  UNL1       -0.1684
      9 C          62.3721   81.3152   13.2260 C.ar    1  UNL1        0.0805
     10 C          61.9567   80.2536   14.2009 C.3     1  UNL1        0.0540
     11 C          63.2552   81.1169   12.0297 C.ar    1  UNL1        0.0312
     12 C          63.4063   82.4406   11.3406 C.ar    1  UNL1        0.0637
     13 C          64.2065   82.7021   10.0991 C.3     1  UNL1        0.0522
     14 C          60.6309   87.2332    9.1448 C.ar    1  UNL1        0.1805
     15 C          59.7111   86.3514    8.3532 C.ar    1  UNL1        0.0434
     16 C          59.0459   87.1959    7.3071 C.ar    1  UNL1        0.0362
     17 C          59.5544   88.5996    7.4521 C.ar    1  UNL1        0.1234
     18 C          59.1537   89.7740    6.6094 C.3     1  UNL1        0.0725
     19 O          60.5340   88.6227    8.5879 O.2     1  UNL1       -0.4546
     20 C          63.1065   89.6169   13.5948 C.2     1  UNL1        0.2316
     21 O          61.6426   89.7910   13.3174 O.2     1  UNL1       -0.2744
     22 N          63.8337   88.4184   13.0611 N.am    1  UNL1       -0.2689
     23 H          64.7944   88.3042   13.2431 H       1  UNL1        0.1563
     24 C          63.8432   90.6413   14.4059 C.3     1  UNL1        0.1119
     25 C          65.8683   92.8210   11.7795 C.ar    1  UNL1        0.1415
     26 C          64.7662   92.0193   12.4061 C.ar    1  UNL1        0.0333
     27 C          64.9454   91.4430   13.7793 C.ar    1  UNL1       -0.0071
     28 C          66.2266   91.6683   14.5260 C.ar    1  UNL1        0.0333
     29 C          67.3288   92.4700   13.8994 C.ar    1  UNL1        0.1415
     30 C          67.1496   93.0463   12.5262 C.ar    1  UNL1        0.0737
     31 C          66.8608   93.9945    9.6848 C.3     1  UNL1        0.2525
     32 O          65.6892   93.3973   10.4063 O.3     1  UNL1       -0.4713
     33 O          68.6101   92.6953   14.6460 O.3     1  UNL1       -0.4713
     34 C          68.6281   93.5852   15.8534 C.3     1  UNL1        0.2525
@<TRIPOS>BOND
     1    31    32    1
     2    32    25    1
     3    25    26   ar
     4    26    27   ar
     5    27    24    1
     6    24    20    1
     7    20    21    2
     8    20    22   am
     9    22     1    1
    10     1     2   ar
    11     2     3   ar
    12     3     7    1
    13     7     8   ar
    14     8     9   ar
    15     9    10    1
    16     9    11   ar
    17    11    12   ar
    18    12    13    1
    19     3     4   ar
    20     4     5   ar
    21     5    14    1
    22    14    15   ar
    23    15    16   ar
    24    16    17   ar
    25    17    18    1
    26    17    19   ar
    27     5     6   ar
    28    27    28   ar
    29    28    29   ar
    30    29    33    1
    31    33    34    1
    32    29    30   ar
    33    30    25   ar
    34     6     1   ar
    35    12     7   ar
    36    19    14   ar
    37    22    23    1
@<TRIPOS>MOLECULE
*****
 34 37 0 0 0
SMALL
GASTEIGER

@<TRIPOS>ATOM
      1 C          62.7256   88.2322   11.9829 C.ar    1  UNL1        0.1390
      2 C          61.9154   88.5981   10.7748 C.ar    1  UNL1        0.0733
      3 C          61.3832   87.5225    9.8747 C.ar    1  UNL1        0.1679
      4 N          61.6613   86.0811   10.1828 N.ar    1  UNL1       -0.2047
      5 C          62.4716   85.7152   11.3910 C.ar    1  UNL1        0.2001
      6 N          63.0037   86.7907   12.2910 N.ar    1  UNL1       -0.2088
      7 N          60.5729   87.8885    8.6666 N.ar    1  UNL1       -0.2164
      8 N          60.1077   89.2670    8.3015 N.ar    1  UNL1       -0.1684
      9 C          59.3329   89.1708    7.0207 C.ar    1  UNL1        0.0805
     10 C          58.6854   90.3121    6.2940 C.3     1  UNL1        0.0540
     11 C          59.3192   87.7327    6.5943 C.ar    1  UNL1        0.0312
     12 C          60.0856   86.9402    7.6115 C.ar    1  UNL1        0.0637
     13 C          60.3230   85.4595    7.5793 C.3     1  UNL1        0.0522
     14 C          62.7496   84.2738   11.6991 C.ar    1  UNL1        0.1805
     15 C          63.4808   83.3082   10.8142 C.ar    1  UNL1        0.0434
     16 C          63.5285   81.9825   11.5143 C.ar    1  UNL1        0.0362
     17 C          62.8266   82.1287   12.8320 C.ar    1  UNL1        0.1234
     18 C          62.6391   81.0485   13.8557 C.3     1  UNL1        0.0725
     19 O          62.3453   83.5448   12.9461 O.2     1  UNL1       -0.4546
     20 C          64.0204   88.9401   14.1212 C.2     1  UNL1        0.2316
     21 O          64.2508   87.4970   14.4595 O.2     1  UNL1       -0.2744
     22 N          63.2578   89.3077   12.8829 N.am    1  UNL1       -0.2689
     23 H          63.1066   90.2548   12.6609 H       1  UNL1        0.1563
     24 C          64.5526   90.0157   15.0212 C.3     1  UNL1        0.1119
     25 C          65.5954   92.8342   12.4292 C.ar    1  UNL1        0.1415
     26 C          64.9291   91.6258   13.0173 C.ar    1  UNL1        0.0333
     27 C          65.2189   91.2241   14.4331 C.ar    1  UNL1       -0.0071
     28 C          66.1750   92.0307   15.2609 C.ar    1  UNL1        0.0333
     29 C          66.8412   93.2391   14.6728 C.ar    1  UNL1        0.1415
     30 C          66.5514   93.6408   13.2569 C.ar    1  UNL1        0.0737
     31 C          66.4304   93.6143   10.0959 C.3     1  UNL1        0.2525
     32 O          65.3056   93.2359   11.0133 O.3     1  UNL1       -0.4713
     33 O          67.7974   94.0458   15.5006 O.3     1  UNL1       -0.4713
     34 C          69.1289   93.4704   15.8824 C.3     1  UNL1        0.2525
@<TRIPOS>BOND
     1    31    32    1
     2    32    25    1
     3    25    26   ar
     4    26    27   ar
     5    27    24    1
     6    24    20    1
     7    20    21    2
     8    20    22   am
     9    22     1    1
    10     1     2   ar
    11     2     3   ar
    12     3     7    1
    13     7     8   ar
    14     8     9   ar
    15     9    10    1
    16     9    11   ar
    17    11    12   ar
    18    12    13    1
    19     3     4   ar
    20     4     5   ar
    21     5    14    1
    22    14    15   ar
    23    15    16   ar
    24    16    17   ar
    25    17    18    1
    26    17    19   ar
    27     5     6   ar
    28    27    28   ar
    29    28    29   ar
    30    29    33    1
    31    33    34    1
    32    29    30   ar
    33    30    25   ar
    34     6     1   ar
    35    12     7   ar
    36    19    14   ar
    37    22    23    1
@<TRIPOS>MOLECULE
*****
 34 37 0 0 0
SMALL
GASTEIGER

@<TRIPOS>ATOM
      1 C          62.7181   88.2418   11.9720 C.ar    1  UNL1        0.1390
      2 C          61.9082   88.6065   10.7633 C.ar    1  UNL1        0.0733
      3 C          61.3777   87.5301    9.8632 C.ar    1  UNL1        0.1679
      4 N          61.6571   86.0891   10.1719 N.ar    1  UNL1       -0.2047
      5 C          62.4670   85.7244   11.3807 C.ar    1  UNL1        0.2001
      6 N          62.9975   86.8007   12.2808 N.ar    1  UNL1       -0.2088
      7 N          60.5679   87.8949    8.6544 N.ar    1  UNL1       -0.2164
      8 N          60.1057   89.2735    8.2859 N.ar    1  UNL1       -0.1684
      9 C          59.3302   89.1758    7.0057 C.ar    1  UNL1        0.0805
     10 C          58.6851   90.3168    6.2763 C.3     1  UNL1        0.0540
     11 C          59.3130   87.7366    6.5830 C.ar    1  UNL1        0.0312
     12 C          60.0779   86.9450    7.6019 C.ar    1  UNL1        0.0637
     13 C          60.3118   85.4637    7.5735 C.3     1  UNL1        0.0522
     14 C          62.7464   84.2833   11.6894 C.ar    1  UNL1        0.1805
     15 C          63.4693   83.3153   10.8004 C.ar    1  UNL1        0.0434
     16 C          63.5217   81.9910   11.5028 C.ar    1  UNL1        0.0362
     17 C          62.8311   82.1405   12.8260 C.ar    1  UNL1        0.1234
     18 C          62.6512   81.0626   13.8535 C.3     1  UNL1        0.0725
     19 O          62.3520   83.5573   12.9413 O.2     1  UNL1       -0.4546
     20 C          64.0228   88.9520   14.1034 C.2     1  UNL1        0.2316
     21 O          64.2668   87.5095   14.4348 O.2     1  UNL1       -0.2744
     22 N          63.2485   89.3181   12.8721 N.am    1  UNL1       -0.2689
     23 H          63.0884   90.2649   12.6546 H       1  UNL1        0.1563
     24 C          64.5533   90.0284   15.0035 C.3     1  UNL1        0.1119
     25 C          66.8560   93.2415   14.6517 C.ar    1  UNL1        0.1415
     26 C          66.1880   92.0339   15.2395 C.ar    1  UNL1        0.0333
     27 C          65.2213   91.2360   14.4156 C.ar    1  UNL1       -0.0071
     28 C          64.9227   91.6455   13.0039 C.ar    1  UNL1        0.0333
     29 C          65.5907   92.8531   12.4160 C.ar    1  UNL1        0.1415
     30 C          66.5573   93.6510   13.2399 C.ar    1  UNL1        0.0737
     31 C          69.1086   93.4181   15.9340 C.3     1  UNL1        0.2525
     32 O          67.8227   94.0394   15.4755 O.3     1  UNL1       -0.4713
     33 O          65.2920   93.2627   11.0042 O.3     1  UNL1       -0.4713
     34 C          66.3689   93.8720   10.1563 C.3     1  UNL1        0.2525
@<TRIPOS>BOND
     1    31    32    1
     2    32    25    1
     3    25    26   ar
     4    26    27   ar
     5    27    24    1
     6    24    20    1
     7    20    21    2
     8    20    22   am
     9    22     1    1
    10     1     2   ar
    11     2     3   ar
    12     3     7    1
    13     7     8   ar
    14     8     9   ar
    15     9    10    1
    16     9    11   ar
    17    11    12   ar
    18    12    13    1
    19     3     4   ar
    20     4     5   ar
    21     5    14    1
    22    14    15   ar
    23    15    16   ar
    24    16    17   ar
    25    17    18    1
    26    17    19   ar
    27     5     6   ar
    28    27    28   ar
    29    28    29   ar
    30    29    33    1
    31    33    34    1
    32    29    30   ar
    33    30    25   ar
    34     6     1   ar
    35    12     7   ar
    36    19    14   ar
    37    22    23    1
@<TRIPOS>MOLECULE
*****
 34 37 0 0 0
SMALL
GASTEIGER

@<TRIPOS>ATOM
      1 C          63.6997   87.7403   13.2552 C.ar    1  UNL1        0.1390
      2 C          62.8485   88.1375   12.0857 C.ar    1  UNL1        0.0733
      3 C          62.0795   87.0951   11.3294 C.ar    1  UNL1        0.1679
      4 N          62.1616   85.6555   11.7426 N.ar    1  UNL1       -0.2047
      5 C          63.0128   85.2582   12.9121 C.ar    1  UNL1        0.2001
      6 N          63.7818   86.3006   13.6684 N.ar    1  UNL1       -0.2088
      7 N          61.2283   87.4924   10.1599 N.ar    1  UNL1       -0.2164
      8 N          60.3199   86.5866    9.3825 N.ar    1  UNL1       -0.1684
      9 C          59.6663   87.3996    8.3046 C.ar    1  UNL1        0.0805
     10 C          58.6811   86.8933    7.2931 C.3     1  UNL1        0.0540
     11 C          60.1708   88.8079    8.4158 C.ar    1  UNL1        0.0312
     12 C          61.1361   88.8652    9.5625 C.ar    1  UNL1        0.0637
     13 C          61.8789   90.0817   10.0297 C.3     1  UNL1        0.0522
     14 C          63.0948   83.8186   13.3252 C.ar    1  UNL1        0.1805
     15 C          63.8149   83.2864   14.5287 C.ar    1  UNL1        0.0434
     16 C          63.6364   81.7973   14.5547 C.ar    1  UNL1        0.0362
     17 C          62.8060   81.4091   13.3673 C.ar    1  UNL1        0.1234
     18 C          62.3843   80.0163   13.0037 C.3     1  UNL1        0.0725
     19 O          62.4713   82.6584   12.6075 O.2     1  UNL1       -0.4546
     20 C          63.7419   89.7773   14.8672 C.2     1  UNL1        0.2316
     21 O          62.2459   89.7296   14.9666 O.2     1  UNL1       -0.2744
     22 N          64.4687   88.7826   14.0115 N.am    1  UNL1       -0.2689
     23 H          65.4506   88.8139   13.9463 H       1  UNL1        0.1563
     24 C          64.5109   90.8197   15.6235 C.3     1  UNL1        0.1119
     25 C          65.8558   93.1795   12.7300 C.ar    1  UNL1        0.1415
     26 C          65.0110   92.1859   13.4710 C.ar    1  UNL1        0.0333
     27 C          65.3557   91.8133   14.8825 C.ar    1  UNL1       -0.0071
     28 C          66.5452   92.4343   15.5530 C.ar    1  UNL1        0.0333
     29 C          67.3899   93.4279   14.8120 C.ar    1  UNL1        0.1415
     30 C          67.0452   93.8005   13.4005 C.ar    1  UNL1        0.0737
     31 C          66.5013   93.3149   10.2171 C.3     1  UNL1        0.2525
     32 O          65.5111   93.5521   11.3185 O.3     1  UNL1       -0.4713
     33 O          68.5794   94.0489   15.4825 O.3     1  UNL1       -0.4713
     34 C          69.3924   93.2503   16.4577 C.3     1  UNL1        0.2525
@<TRIPOS>BOND
     1    31    32    1
     2    32    25    1
     3    25    26   ar
     4    26    27   ar
     5    27    24    1
     6    24    20    1
     7    20    21    2
     8    20    22   am
     9    22     1    1
    10     1     2   ar
    11     2     3   ar
    12     3     7    1
    13     7     8   ar
    14     8     9   ar
    15     9    10    1
    16     9    11   ar
    17    11    12   ar
    18    12    13    1
    19     3     4   ar
    20     4     5   ar
    21     5    14    1
    22    14    15   ar
    23    15    16   ar
    24    16    17   ar
    25    17    18    1
    26    17    19   ar
    27     5     6   ar
    28    27    28   ar
    29    28    29   ar
    30    29    33    1
    31    33    34    1
    32    29    30   ar
    33    30    25   ar
    34     6     1   ar
    35    12     7   ar
    36    19    14   ar
    37    22    23    1
@<TRIPOS>MOLECULE
*****
 34 37 0 0 0
SMALL
GASTEIGER

@<TRIPOS>ATOM
      1 C          62.8319   87.3819   11.8388 C.ar    1  UNL1        0.1390
      2 C          62.4065   87.1784   10.4149 C.ar    1  UNL1        0.0733
      3 C          62.0990   85.7984    9.9139 C.ar    1  UNL1        0.1679
      4 N          62.2169   84.6218   10.8368 N.ar    1  UNL1       -0.2047
      5 C          62.6424   84.8253   12.2608 C.ar    1  UNL1        0.2001
      6 N          62.9499   86.2053   12.7618 N.ar    1  UNL1       -0.2088
      7 N          61.6735   85.5949    8.4899 N.ar    1  UNL1       -0.2164
      8 N          62.4253   84.8224    7.4469 N.ar    1  UNL1       -0.1684
      9 C          61.6381   84.8783    6.1714 C.ar    1  UNL1        0.0805
     10 C          62.0218   84.2393    4.8697 C.3     1  UNL1        0.0540
     11 C          60.3996   85.6855    6.4261 C.ar    1  UNL1        0.0312
     12 C          60.4216   86.1284    7.8590 C.ar    1  UNL1        0.0637
     13 C          59.3753   86.9589    8.5413 C.3     1  UNL1        0.0522
     14 C          62.7604   83.6487   13.1837 C.ar    1  UNL1        0.1805
     15 C          63.2241   83.6897   14.6096 C.ar    1  UNL1        0.0434
     16 C          63.1857   82.2909   15.1499 C.ar    1  UNL1        0.0362
     17 C          62.6982   81.3854   14.0579 C.ar    1  UNL1        0.1234
     18 C          62.5071   79.9013   14.1627 C.3     1  UNL1        0.0725
     19 O          62.4353   82.2246   12.8427 O.2     1  UNL1       -0.4546
     20 C          62.8769   89.9527   11.4664 C.2     1  UNL1        0.2316
     21 O          62.3068   89.7635   10.0918 O.2     1  UNL1       -0.2744
     22 N          63.1394   88.7619   12.3399 N.am    1  UNL1       -0.2689
     23 H          63.5135   88.8860   13.2420 H       1  UNL1        0.1563
     24 C          63.1843   91.3327   11.9674 C.3     1  UNL1        0.1119
     25 C          66.5943   91.8601   13.9281 C.ar    1  UNL1        0.1415
     26 C          65.1774   91.4694   13.6285 C.ar    1  UNL1        0.0333
     27 C          64.6013   91.7234   12.2670 C.ar    1  UNL1       -0.0071
     28 C          65.4420   92.3681   11.2052 C.ar    1  UNL1        0.0333
     29 C          66.8589   92.7588   11.5048 C.ar    1  UNL1        0.1415
     30 C          67.4350   92.5048   12.8662 C.ar    1  UNL1        0.0737
     31 C          67.9753   92.6709   15.9739 C.3     1  UNL1        0.2525
     32 O          67.1704   91.6061   15.2895 O.3     1  UNL1       -0.4713
     33 O          67.6997   93.4035   10.4429 O.3     1  UNL1       -0.4713
     34 C          68.3601   92.5592    9.3937 C.3     1  UNL1        0.2525
@<TRIPOS>BOND
     1    31    32    1
     2    32    25    1
     3    25    26   ar
     4    26    27   ar
     5    27    24    1
     6    24    20    1
     7    20    21    2
     8    20    22   am
     9    22     1    1
    10     1     2   ar
    11     2     3   ar
    12     3     7    1
    13     7     8   ar
    14     8     9   ar
    15     9    10    1
    16     9    11   ar
    17    11    12   ar
    18    12    13    1
    19     3     4   ar
    20     4     5   ar
    21     5    14    1
    22    14    15   ar
    23    15    16   ar
    24    16    17   ar
    25    17    18    1
    26    17    19   ar
    27     5     6   ar
    28    27    28   ar
    29    28    29   ar
    30    29    33    1
    31    33    34    1
    32    29    30   ar
    33    30    25   ar
    34     6     1   ar
    35    12     7   ar
    36    19    14   ar
    37    22    23    1
@<TRIPOS>MOLECULE
*****
 34 37 0 0 0
SMALL
GASTEIGER

@<TRIPOS>ATOM
      1 C          62.5097   86.8322   11.9247 C.ar    1  UNL1        0.1390
      2 C          63.2964   88.0112   12.4158 C.ar    1  UNL1        0.0733
      3 C          63.1601   89.3403   11.7340 C.ar    1  UNL1        0.1679
      4 N          62.2372   89.4905   10.5612 N.ar    1  UNL1       -0.2047
      5 C          61.4505   88.3115   10.0700 C.ar    1  UNL1        0.2001
      6 N          61.5868   86.9824   10.7517 N.ar    1  UNL1       -0.2088
      7 N          63.9468   90.5193   12.2252 N.ar    1  UNL1       -0.2164
      8 N          64.5206   91.6129   11.3738 N.ar    1  UNL1       -0.1684
      9 C          65.2262   92.5811   12.2763 C.ar    1  UNL1        0.0805
     10 C          65.9435   93.8260   11.8453 C.3     1  UNL1        0.0540
     11 C          65.0885   92.0859   13.6855 C.ar    1  UNL1        0.0312
     12 C          64.2978   90.8117   13.6539 C.ar    1  UNL1        0.0637
     13 C          63.9238   89.9764   14.8423 C.3     1  UNL1        0.0522
     14 C          60.5276   88.4617    8.8971 C.ar    1  UNL1        0.1805
     15 C          59.5675   87.4257    8.3924 C.ar    1  UNL1        0.0434
     16 C          58.8492   87.9980    7.2064 C.ar    1  UNL1        0.0362
     17 C          59.3655   89.3878    6.9781 C.ar    1  UNL1        0.1234
     18 C          58.9222   90.3261    5.8951 C.3     1  UNL1        0.0725
     19 O          60.4027   89.6743    8.0231 O.2     1  UNL1       -0.4546
     20 C          63.6182   85.3359   13.7363 C.2     1  UNL1        0.2316
     21 O          64.4542   86.4979   14.1846 O.2     1  UNL1       -0.2744
     22 N          62.6460   85.5031   12.6064 N.am    1  UNL1       -0.2689
     23 H          62.0973   84.7404   12.3122 H       1  UNL1        0.1563
     24 C          63.7545   84.0067   14.4181 C.3     1  UNL1        0.1119
     25 C          61.4790   80.7989   13.8873 C.ar    1  UNL1        0.1415
     26 C          62.0758   82.0260   14.5102 C.ar    1  UNL1        0.0333
     27 C          63.1577   82.7796   13.7951 C.ar    1  UNL1       -0.0071
     28 C          63.6429   82.3062   12.4570 C.ar    1  UNL1        0.0333
     29 C          63.0461   81.0791   11.8341 C.ar    1  UNL1        0.1415
     30 C          61.9641   80.3254   12.5492 C.ar    1  UNL1        0.0737
     31 C          58.9576   80.2990   14.2653 C.3     1  UNL1        0.2525
     32 O          60.3970   80.0452   14.6024 O.3     1  UNL1       -0.4713
     33 O          63.5313   80.6056   10.4960 O.3     1  UNL1       -0.4713
     34 C          62.8223   79.4852    9.7946 C.3     1  UNL1        0.2525
@<TRIPOS>BOND
     1    31    32    1
     2    32    25    1
     3    25    26   ar
     4    26    27   ar
     5    27    24    1
     6    24    20    1
     7    20    21    2
     8    20    22   am
     9    22     1    1
    10     1     2   ar
    11     2     3   ar
    12     3     7    1
    13     7     8   ar
    14     8     9   ar
    15     9    10    1
    16     9    11   ar
    17    11    12   ar
    18    12    13    1
    19     3     4   ar
    20     4     5   ar
    21     5    14    1
    22    14    15   ar
    23    15    16   ar
    24    16    17   ar
    25    17    18    1
    26    17    19   ar
    27     5     6   ar
    28    27    28   ar
    29    28    29   ar
    30    29    33    1
    31    33    34    1
    32    29    30   ar
    33    30    25   ar
    34     6     1   ar
    35    12     7   ar
    36    19    14   ar
    37    22    23    1
@<TRIPOS>MOLECULE
*****
 34 37 0 0 0
SMALL
GASTEIGER

@<TRIPOS>ATOM
      1 C          63.9556   87.9651   13.7706 C.ar    1  UNL1        0.1390
      2 C          64.8480   89.1135   14.1379 C.ar    1  UNL1        0.0733
      3 C          64.6529   90.4520   13.4896 C.ar    1  UNL1        0.1679
      4 N          63.5654   90.6422   12.4741 N.ar    1  UNL1       -0.2047
      5 C          62.6730   89.4938   12.1069 C.ar    1  UNL1        0.2001
      6 N          62.8681   88.1553   12.7551 N.ar    1  UNL1       -0.2088
      7 N          65.5453   91.6004   13.8569 N.ar    1  UNL1       -0.2164
      8 N          66.3031   91.7520   15.1425 N.ar    1  UNL1       -0.1684
      9 C          67.0627   93.0441   15.0833 C.ar    1  UNL1        0.0805
     10 C          67.9542   93.5928   16.1576 C.3     1  UNL1        0.0540
     11 C          66.7744   93.6911   13.7610 C.ar    1  UNL1        0.0312
     12 C          65.8366   92.7988   13.0031 C.ar    1  UNL1        0.0637
     13 C          65.2866   93.0592   11.6321 C.3     1  UNL1        0.0522
     14 C          61.5855   89.6840   11.0914 C.ar    1  UNL1        0.1805
     15 C          60.3662   90.5419   11.2556 C.ar    1  UNL1        0.0434
     16 C          59.5535   90.4378    9.9991 C.ar    1  UNL1        0.0362
     17 C          60.2707   89.5155    9.0583 C.ar    1  UNL1        0.1234
     18 C          59.8124   89.1272    7.6838 C.3     1  UNL1        0.0725
     19 O          61.5265   89.0496    9.7334 O.2     1  UNL1       -0.4546
     20 C          63.6221   85.3886   13.7571 C.2     1  UNL1        0.2316
     21 O          62.8984   85.4891   12.4471 O.2     1  UNL1       -0.2744
     22 N          64.1507   86.6266   14.4189 N.am    1  UNL1       -0.2689
     23 H          64.6257   86.5606   15.2787 H       1  UNL1        0.1563
     24 C          63.8172   84.0500   14.4054 C.3     1  UNL1        0.1119
     25 C          61.5067   80.8604   13.9179 C.ar    1  UNL1        0.1415
     26 C          62.1214   82.0855   14.5272 C.ar    1  UNL1        0.0333
     27 C          63.2025   82.8249   13.7961 C.ar    1  UNL1       -0.0071
     28 C          63.6688   82.3392   12.4557 C.ar    1  UNL1        0.0333
     29 C          63.0541   81.1142   11.8465 C.ar    1  UNL1        0.1415
     30 C          61.9730   80.3747   12.5776 C.ar    1  UNL1        0.0737
     31 C          58.9927   80.2882   14.2382 C.3     1  UNL1        0.2525
     32 O          60.4256   80.1209   14.6490 O.3     1  UNL1       -0.4713
     33 O          63.5205   80.6284   10.5060 O.3     1  UNL1       -0.4713
     34 C          62.8508   79.4519    9.8600 C.3     1  UNL1        0.2525
@<TRIPOS>BOND
     1    31    32    1
     2    32    25    1
     3    25    26   ar
     4    26    27   ar
     5    27    24    1
     6    24    20    1
     7    20    21    2
     8    20    22   am
     9    22     1    1
    10     1     2   ar
    11     2     3   ar
    12     3     7    1
    13     7     8   ar
    14     8     9   ar
    15     9    10    1
    16     9    11   ar
    17    11    12   ar
    18    12    13    1
    19     3     4   ar
    20     4     5   ar
    21     5    14    1
    22    14    15   ar
    23    15    16   ar
    24    16    17   ar
    25    17    18    1
    26    17    19   ar
    27     5     6   ar
    28    27    28   ar
    29    28    29   ar
    30    29    33    1
    31    33    34    1
    32    29    30   ar
    33    30    25   ar
    34     6     1   ar
    35    12     7   ar
    36    19    14   ar
    37    22    23    1
@<TRIPOS>MOLECULE
*****
 34 37 0 0 0
SMALL
GASTEIGER

@<TRIPOS>ATOM
      1 C          61.5366   86.9386   10.0544 C.ar    1  UNL1        0.1390
      2 C          62.1592   88.1873   10.6049 C.ar    1  UNL1        0.0733
      3 C          62.9268   88.1377   11.8927 C.ar    1  UNL1        0.1679
      4 N          63.0719   86.8395   12.6299 N.ar    1  UNL1       -0.2047
      5 C          62.4493   85.5907   12.0794 C.ar    1  UNL1        0.2001
      6 N          61.6816   85.6403   10.7916 N.ar    1  UNL1       -0.2088
      7 N          63.5495   89.3865   12.4432 N.ar    1  UNL1       -0.2164
      8 N          64.2210   89.5225   13.7776 N.ar    1  UNL1       -0.1684
      9 C          64.6964   90.9385   13.9151 C.ar    1  UNL1        0.0805
     10 C          65.4222   91.5143   15.0948 C.3     1  UNL1        0.0540
     11 C          64.3186   91.6777   12.6657 C.ar    1  UNL1        0.0312
     12 C          63.6098   90.7185   11.7560 C.ar    1  UNL1        0.0637
     13 C          63.0581   91.0355   10.3977 C.3     1  UNL1        0.0522
     14 C          62.5943   84.2925   12.8166 C.ar    1  UNL1        0.1805
     15 C          62.8624   84.1372   14.2843 C.ar    1  UNL1        0.0434
     16 C          62.9305   82.6704   14.5904 C.ar    1  UNL1        0.0362
     17 C          62.7045   81.9191   13.3119 C.ar    1  UNL1        0.1234
     18 C          62.6890   80.4272   13.1569 C.3     1  UNL1        0.0725
     19 O          62.4967   82.9216   12.2157 O.2     1  UNL1       -0.4546
     20 C          60.0669   88.2498    8.3601 C.2     1  UNL1        0.2316
     21 O          60.1325   89.4619    9.2412 O.2     1  UNL1       -0.2744
     22 N          60.7690   86.9881    8.7667 N.am    1  UNL1       -0.2689
     23 H          60.7260   86.1926    8.1883 H       1  UNL1        0.1563
     24 C          59.2993   88.2993    7.0723 C.3     1  UNL1        0.1119
     25 C          58.1596   91.5519    5.1047 C.ar    1  UNL1        0.1415
     26 C          58.1059   90.3230    5.9630 C.ar    1  UNL1        0.0333
     27 C          59.3531   89.5283    6.2139 C.ar    1  UNL1       -0.0071
     28 C          60.6540   89.9625    5.6065 C.ar    1  UNL1        0.0333
     29 C          60.7077   91.1915    4.7482 C.ar    1  UNL1        0.1415
     30 C          59.4605   91.9862    4.4973 C.ar    1  UNL1        0.0737
     31 C          55.5794   91.6596    4.8202 C.3     1  UNL1        0.2525
     32 O          56.9124   92.3466    4.8538 O.3     1  UNL1       -0.4713
     33 O          62.0086   91.6258    4.1407 O.3     1  UNL1       -0.4713
     34 C          62.0177   92.3577    2.8314 C.3     1  UNL1        0.2525
@<TRIPOS>BOND
     1    31    32    1
     2    32    25    1
     3    25    26   ar
     4    26    27   ar
     5    27    24    1
     6    24    20    1
     7    20    21    2
     8    20    22   am
     9    22     1    1
    10     1     2   ar
    11     2     3   ar
    12     3     7    1
    13     7     8   ar
    14     8     9   ar
    15     9    10    1
    16     9    11   ar
    17    11    12   ar
    18    12    13    1
    19     3     4   ar
    20     4     5   ar
    21     5    14    1
    22    14    15   ar
    23    15    16   ar
    24    16    17   ar
    25    17    18    1
    26    17    19   ar
    27     5     6   ar
    28    27    28   ar
    29    28    29   ar
    30    29    33    1
    31    33    34    1
    32    29    30   ar
    33    30    25   ar
    34     6     1   ar
    35    12     7   ar
    36    19    14   ar
    37    22    23    1
