@<TRIPOS>MOLECULE
*****
 41 46 0 0 0
SMALL
GASTEIGER

@<TRIPOS>ATOM
      1 C          59.6801   88.5639    8.0096 C.ar    1  UNL1        0.2219
      2 N          59.8074   87.0747    8.1367 N.ar    1  UNL1       -0.2096
      3 C          60.8335   86.4856    9.0587 C.ar    1  UNL1        0.1329
      4 C          61.7323   87.3858    9.8537 C.ar    1  UNL1        0.1768
      5 F          62.7584   86.7967   10.7757 F       1  UNL1       -0.2009
      6 C          61.6050   88.8749    9.7266 C.ar    1  UNL1        0.1132
      7 N          60.5789   89.4640    8.8046 N.ar    1  UNL1       -0.2112
      8 C          62.5038   89.7751   10.5215 C.ar    1  UNL1        0.0238
      9 C          63.0743   91.0113    9.8920 C.ar    1  UNL1        0.0329
     10 C          63.9731   91.9114   10.6869 C.ar    1  UNL1        0.1591
     11 F          64.5435   93.1476   10.0573 F       1  UNL1       -0.2025
     12 C          64.3014   91.5753   12.1113 C.ar    1  UNL1        0.1256
     13 N          65.1515   92.2670   13.1355 N.ar    1  UNL1       -0.2287
     14 C          65.1064   91.4583   14.3980 C.ar    1  UNL1        0.1207
     15 C          65.8149   91.7840   15.6794 C.3     1  UNL1        0.0718
     16 N          64.2285   90.2668   14.1542 N.ar    1  UNL1       -0.3167
     17 C          63.7309   90.3391   12.7409 C.ar    1  UNL1        0.0808
     18 C          62.8321   89.4390   11.9460 C.ar    1  UNL1        0.0205
     19 C          63.9049   89.1918   15.1490 C.3     1  UNL1        0.0867
     20 C          63.1855   89.5372   16.4191 C.3     1  UNL1        0.0245
     21 C          64.3006   87.7714   14.8737 C.3     1  UNL1        0.0245
     22 N          58.6540   89.1529    7.0876 N.pl3   1  UNL1       -0.2680
     23 H          57.7056   88.9071    7.1851 H       1  UNL1        0.1565
     24 N          61.7422   93.0016    2.3022 N.3     1  UNL1       -0.2698
     25 C          62.7367   92.0330    2.8702 C.3     1  UNL1        0.0786
     26 C          62.3179   91.0695    3.9409 C.3     1  UNL1        0.0629
     27 C          60.9047   91.0747    4.4435 C.ar    1  UNL1        0.0591
     28 N          60.4860   90.1112    5.5142 N.ar    1  UNL1       -0.2351
     29 C          59.0727   90.1164    6.0169 C.ar    1  UNL1        0.1339
     30 C          58.0782   91.0851    5.4489 C.ar    1  UNL1        0.0342
     31 C          58.4969   92.0486    4.3782 C.ar    1  UNL1        0.0011
     32 C          59.9102   92.0434    3.8756 C.ar    1  UNL1        0.0076
     33 C          60.3289   93.0068    2.8049 C.3     1  UNL1        0.1003
     34 N          62.9984   95.8922   -0.9098 N.3     1  UNL1       -0.2726
     35 C          61.7278   96.1243   -0.1471 C.3     1  UNL1        0.0735
     36 C          61.3091   95.1608    0.9236 C.3     1  UNL1        0.0333
     37 C          62.1609   93.9652    1.2315 C.3     1  UNL1        0.0606
     38 C          63.4315   93.7330    0.4688 C.3     1  UNL1        0.0333
     39 C          63.8502   94.6965   -0.6019 C.3     1  UNL1        0.0735
     40 C          64.7640   96.7199   -2.6265 C.3     1  UNL1        0.0188
     41 C          63.4171   96.8556   -1.9805 C.3     1  UNL1        0.0721
@<TRIPOS>BOND
     1    40    41    1
     2    41    34    1
     3    34    35    1
     4    35    36    1
     5    36    37    1
     6    37    24    1
     7    24    25    1
     8    25    26    1
     9    26    27    1
    10    27    28   ar
    11    28    29   ar
    12    29    22    1
    13    22     1    1
    14     1     2   ar
    15     2     3   ar
    16     3     4   ar
    17     4     5    1
    18     4     6   ar
    19     6     8    1
    20     8     9   ar
    21     9    10   ar
    22    10    11    1
    23    10    12   ar
    24    12    13   ar
    25    13    14   ar
    26    14    15    1
    27    14    16   ar
    28    16    19    1
    29    19    20    1
    30    19    21    1
    31    16    17   ar
    32    17    18   ar
    33     6     7   ar
    34    29    30   ar
    35    30    31   ar
    36    31    32   ar
    37    32    33    1
    38    37    38    1
    39    38    39    1
    40    39    34    1
    41    33    24    1
    42    32    27   ar
    43     7     1   ar
    44    18     8   ar
    45    17    12   ar
    46    22    23    1
@<TRIPOS>MOLECULE
*****
 41 46 0 0 0
SMALL
GASTEIGER

@<TRIPOS>ATOM
      1 C          59.4128   88.7260    7.3287 C.ar    1  UNL1        0.2219
      2 N          59.3137   87.3864    6.6612 N.ar    1  UNL1       -0.2096
      3 C          60.0425   86.2072    7.2341 C.ar    1  UNL1        0.1329
      4 C          60.8706   86.3676    8.4745 C.ar    1  UNL1        0.1768
      5 F          61.5995   85.1884    9.0474 F       1  UNL1       -0.2009
      6 C          60.9698   87.7073    9.1420 C.ar    1  UNL1        0.1132
      7 N          60.2409   88.8865    8.5691 N.ar    1  UNL1       -0.2112
      8 C          61.7979   87.8677   10.3824 C.ar    1  UNL1        0.0238
      9 C          62.2313   89.2343   10.8232 C.ar    1  UNL1        0.0329
     10 C          63.0594   89.3948   12.0636 C.ar    1  UNL1        0.1591
     11 F          63.4929   90.7615   12.5044 F       1  UNL1       -0.2025
     12 C          63.4540   88.1886   12.8631 C.ar    1  UNL1        0.1256
     13 N          64.2593   88.0366   14.1194 N.ar    1  UNL1       -0.2287
     14 C          64.3236   86.5761   14.4551 C.ar    1  UNL1        0.1207
     15 C          65.0295   85.9723   15.6328 C.3     1  UNL1        0.0718
     16 N          63.5580   85.8254   13.4062 N.ar    1  UNL1       -0.3167
     17 C          63.0206   86.8219   12.4222 C.ar    1  UNL1        0.0808
     18 C          62.1925   86.6615   11.1819 C.ar    1  UNL1        0.0205
     19 C          63.3639   84.3390   13.3509 C.3     1  UNL1        0.0867
     20 C          62.4887   83.6589   14.3615 C.3     1  UNL1        0.0245
     21 C          64.0450   83.5327   12.2851 C.3     1  UNL1        0.0245
     22 N          58.6839   89.9052    6.7558 N.pl3   1  UNL1       -0.2680
     23 H          57.8050   90.1634    7.1165 H       1  UNL1        0.1565
     24 N          62.5630   92.8365    1.8968 N.3     1  UNL1       -0.2698
     25 C          63.3912   91.8385    2.6505 C.3     1  UNL1        0.0786
     26 C          62.7810   91.0527    3.7730 C.3     1  UNL1        0.0629
     27 C          61.3426   91.2648    4.1418 C.ar    1  UNL1        0.0591
     28 N          60.7325   90.4789    5.2644 N.ar    1  UNL1       -0.2351
     29 C          59.2941   90.6911    5.6333 C.ar    1  UNL1        0.1339
     30 C          58.4659   91.6892    4.8796 C.ar    1  UNL1        0.0342
     31 C          59.0761   92.4750    3.7571 C.ar    1  UNL1        0.0011
     32 C          60.5145   92.2628    3.3882 C.ar    1  UNL1        0.0076
     33 C          61.1246   93.0487    2.2657 C.3     1  UNL1        0.1003
     34 N          64.3935   95.1942   -1.4708 N.3     1  UNL1       -0.2726
     35 C          63.0828   94.4931   -1.6719 C.3     1  UNL1        0.0735
     36 C          62.4726   93.7072   -0.5494 C.3     1  UNL1        0.0333
     37 C          63.1732   93.6224    0.7743 C.3     1  UNL1        0.0606
     38 C          64.4839   94.3235    0.9754 C.3     1  UNL1        0.0333
     39 C          65.0941   95.1094   -0.1471 C.3     1  UNL1        0.0735
     40 C          64.8510   95.5082   -4.0089 C.3     1  UNL1        0.0188
     41 C          65.0037   95.9801   -2.5933 C.3     1  UNL1        0.0721
@<TRIPOS>BOND
     1    40    41    1
     2    41    34    1
     3    34    35    1
     4    35    36    1
     5    36    37    1
     6    37    24    1
     7    24    25    1
     8    25    26    1
     9    26    27    1
    10    27    28   ar
    11    28    29   ar
    12    29    22    1
    13    22     1    1
    14     1     2   ar
    15     2     3   ar
    16     3     4   ar
    17     4     5    1
    18     4     6   ar
    19     6     8    1
    20     8     9   ar
    21     9    10   ar
    22    10    11    1
    23    10    12   ar
    24    12    13   ar
    25    13    14   ar
    26    14    15    1
    27    14    16   ar
    28    16    19    1
    29    19    20    1
    30    19    21    1
    31    16    17   ar
    32    17    18   ar
    33     6     7   ar
    34    29    30   ar
    35    30    31   ar
    36    31    32   ar
    37    32    33    1
    38    37    38    1
    39    38    39    1
    40    39    34    1
    41    33    24    1
    42    32    27   ar
    43     7     1   ar
    44    18     8   ar
    45    17    12   ar
    46    22    23    1
@<TRIPOS>MOLECULE
*****
 41 46 0 0 0
SMALL
GASTEIGER

@<TRIPOS>ATOM
      1 C          59.7701   89.0950    8.4040 C.ar    1  UNL1        0.2219
      2 N          59.9852   90.2893    9.2857 N.ar    1  UNL1       -0.2096
      3 C          60.9034   90.1933   10.4678 C.ar    1  UNL1        0.1329
      4 C          61.6067   88.9029   10.7683 C.ar    1  UNL1        0.1768
      5 F          62.5250   88.8069   11.9505 F       1  UNL1       -0.2009
      6 C          61.3917   87.7086    9.8867 C.ar    1  UNL1        0.1132
      7 N          60.4734   87.8046    8.7045 N.ar    1  UNL1       -0.2112
      8 C          62.0950   86.4182   10.1872 C.ar    1  UNL1        0.0238
      9 C          62.5775   85.5479    9.0648 C.ar    1  UNL1        0.0329
     10 C          63.2808   84.2575    9.3653 C.ar    1  UNL1        0.1591
     11 F          63.7633   83.3873    8.2429 F       1  UNL1       -0.2025
     12 C          63.5015   83.8375   10.7882 C.ar    1  UNL1        0.1256
     13 N          64.1580   82.6293   11.3877 N.ar    1  UNL1       -0.2287
     14 C          64.0813   82.7529   12.8807 C.ar    1  UNL1        0.1207
     15 C          64.6148   81.7653   13.8757 C.3     1  UNL1        0.0718
     16 N          63.3773   84.0374   13.2038 N.ar    1  UNL1       -0.3167
     17 C          63.0190   84.7077   11.9106 C.ar    1  UNL1        0.0808
     18 C          62.3157   85.9981   11.6101 C.ar    1  UNL1        0.0205
     19 C          63.0833   84.5598   14.5788 C.3     1  UNL1        0.0867
     20 C          61.9780   83.9530   15.3912 C.3     1  UNL1        0.0245
     21 C          63.8946   85.6891   15.1415 C.3     1  UNL1        0.0245
     22 N          58.8518   89.1910    7.2218 N.pl3   1  UNL1       -0.2680
     23 H          58.0420   88.6326    7.1809 H       1  UNL1        0.1565
     24 N          61.5085   93.0565    2.1970 N.3     1  UNL1       -0.2698
     25 C          62.5880   92.1875    2.7708 C.3     1  UNL1        0.0786
     26 C          62.2726   91.2406    3.8906 C.3     1  UNL1        0.0629
     27 C          60.8776   91.1627    4.4364 C.ar    1  UNL1        0.0591
     28 N          60.5622   90.2158    5.5562 N.ar    1  UNL1       -0.2351
     29 C          59.1672   90.1379    6.1021 C.ar    1  UNL1        0.1339
     30 C          58.0877   91.0070    5.5282 C.ar    1  UNL1        0.0342
     31 C          58.4031   91.9539    4.4085 C.ar    1  UNL1        0.0011
     32 C          59.7981   92.0318    3.8626 C.ar    1  UNL1        0.0076
     33 C          60.1135   92.9787    2.7429 C.3     1  UNL1        0.1003
     34 N          62.4546   95.8974   -1.1624 N.3     1  UNL1       -0.2726
     35 C          63.5644   95.3102   -0.3416 C.3     1  UNL1        0.0735
     36 C          63.2490   94.3633    0.7782 C.3     1  UNL1        0.0333
     37 C          61.8239   94.0035    1.0772 C.3     1  UNL1        0.0606
     38 C          60.7141   94.5906    0.2564 C.3     1  UNL1        0.0333
     39 C          61.0294   95.5375   -0.8633 C.3     1  UNL1        0.0735
     40 C          64.0310   96.6733   -3.0762 C.3     1  UNL1        0.0188
     41 C          62.7700   96.8443   -2.2821 C.3     1  UNL1        0.0721
@<TRIPOS>BOND
     1    40    41    1
     2    41    34    1
     3    34    35    1
     4    35    36    1
     5    36    37    1
     6    37    24    1
     7    24    25    1
     8    25    26    1
     9    26    27    1
    10    27    28   ar
    11    28    29   ar
    12    29    22    1
    13    22     1    1
    14     1     2   ar
    15     2     3   ar
    16     3     4   ar
    17     4     5    1
    18     4     6   ar
    19     6     8    1
    20     8     9   ar
    21     9    10   ar
    22    10    11    1
    23    10    12   ar
    24    12    13   ar
    25    13    14   ar
    26    14    15    1
    27    14    16   ar
    28    16    19    1
    29    19    20    1
    30    19    21    1
    31    16    17   ar
    32    17    18   ar
    33     6     7   ar
    34    29    30   ar
    35    30    31   ar
    36    31    32   ar
    37    32    33    1
    38    37    38    1
    39    38    39    1
    40    39    34    1
    41    33    24    1
    42    32    27   ar
    43     7     1   ar
    44    18     8   ar
    45    17    12   ar
    46    22    23    1
@<TRIPOS>MOLECULE
*****
 41 46 0 0 0
SMALL
GASTEIGER

@<TRIPOS>ATOM
      1 C          62.8998   87.1968   16.3573 C.ar    1  UNL1        0.2219
      2 N          62.8284   86.1716   17.4499 N.ar    1  UNL1       -0.2096
      3 C          62.9157   84.7119   17.1156 C.ar    1  UNL1        0.1329
      4 C          63.0744   84.2776   15.6887 C.ar    1  UNL1        0.1768
      5 F          63.1617   82.8178   15.3543 F       1  UNL1       -0.2009
      6 C          63.1458   85.3028   14.5961 C.ar    1  UNL1        0.1132
      7 N          63.0585   86.7624   14.9304 N.ar    1  UNL1       -0.2112
      8 C          63.3046   84.8683   13.1691 C.ar    1  UNL1        0.0238
      9 C          64.1534   83.6768   12.8379 C.ar    1  UNL1        0.0329
     10 C          64.3121   83.2423   11.4111 C.ar    1  UNL1        0.1591
     11 F          65.1610   82.0508   11.0799 F       1  UNL1       -0.2025
     12 C          63.6221   83.9994   10.3154 C.ar    1  UNL1        0.1256
     13 N          63.5926   83.8084    8.8279 N.ar    1  UNL1       -0.2287
     14 C          62.7256   84.8818    8.2397 C.ar    1  UNL1        0.1207
     15 C          62.4188   85.0681    6.7833 C.3     1  UNL1        0.0718
     16 N          62.2192   85.7363    9.3637 N.ar    1  UNL1       -0.3167
     17 C          62.7733   85.1910   10.6466 C.ar    1  UNL1        0.0808
     18 C          62.6145   85.6254   12.0734 C.ar    1  UNL1        0.0205
     19 C          61.3171   86.9271    9.2286 C.3     1  UNL1        0.0867
     20 C          61.7755   88.2732    9.7059 C.3     1  UNL1        0.0245
     21 C          59.9567   86.7719    8.6162 C.3     1  UNL1        0.0245
     22 N          62.8125   88.6565   16.6916 N.pl3   1  UNL1       -0.2680
     23 H          62.3257   88.9490   17.4958 H       1  UNL1        0.1565
     24 N          65.1453   92.7116   11.6554 N.3     1  UNL1       -0.2698
     25 C          64.2062   91.6969   11.0735 C.3     1  UNL1        0.0786
     26 C          63.5519   90.6830   11.9644 C.3     1  UNL1        0.0629
     27 C          63.8366   90.6837   13.4371 C.ar    1  UNL1        0.0591
     28 N          63.1821   89.6697   14.3280 N.ar    1  UNL1       -0.2351
     29 C          63.4668   89.6705   15.8007 C.ar    1  UNL1        0.1339
     30 C          64.4059   90.6852   16.3826 C.ar    1  UNL1        0.0342
     31 C          65.0602   91.6992   15.4917 C.ar    1  UNL1        0.0011
     32 C          64.7756   91.6984   14.0190 C.ar    1  UNL1        0.0076
     33 C          65.4299   92.7123   13.1281 C.3     1  UNL1        0.1003
     34 N          67.1085   95.7535    8.9827 N.3     1  UNL1       -0.2726
     35 C          65.9785   96.1622    9.8806 C.3     1  UNL1        0.0735
     36 C          65.3241   95.1482   10.7715 C.3     1  UNL1        0.0333
     37 C          65.7997   93.7256   10.7645 C.3     1  UNL1        0.0606
     38 C          66.9296   93.3170    9.8666 C.3     1  UNL1        0.0333
     39 C          67.5840   94.3309    8.9757 C.3     1  UNL1        0.0735
     40 C          67.3765   96.8552    6.6452 C.3     1  UNL1        0.0188
     41 C          67.7629   96.7675    8.0919 C.3     1  UNL1        0.0721
@<TRIPOS>BOND
     1    40    41    1
     2    41    34    1
     3    34    35    1
     4    35    36    1
     5    36    37    1
     6    37    24    1
     7    24    25    1
     8    25    26    1
     9    26    27    1
    10    27    28   ar
    11    28    29   ar
    12    29    22    1
    13    22     1    1
    14     1     2   ar
    15     2     3   ar
    16     3     4   ar
    17     4     5    1
    18     4     6   ar
    19     6     8    1
    20     8     9   ar
    21     9    10   ar
    22    10    11    1
    23    10    12   ar
    24    12    13   ar
    25    13    14   ar
    26    14    15    1
    27    14    16   ar
    28    16    19    1
    29    19    20    1
    30    19    21    1
    31    16    17   ar
    32    17    18   ar
    33     6     7   ar
    34    29    30   ar
    35    30    31   ar
    36    31    32   ar
    37    32    33    1
    38    37    38    1
    39    38    39    1
    40    39    34    1
    41    33    24    1
    42    32    27   ar
    43     7     1   ar
    44    18     8   ar
    45    17    12   ar
    46    22    23    1
