@<TRIPOS>MOLECULE
*****
 31 35 0 0 0
SMALL
GASTEIGER

@<TRIPOS>ATOM
      1 C          66.2202   92.9228   12.7485 C.ar    1  UNL1        0.0436
      2 C          67.1130   93.0232   13.9496 C.ar    1  UNL1        0.0142
      3 C          66.8428   92.1764   15.1578 C.ar    1  UNL1        0.0010
      4 C          65.6797   91.2292   15.1650 C.ar    1  UNL1       -0.0032
      5 C          64.7869   91.1288   13.9639 C.ar    1  UNL1       -0.0091
      6 C          65.0571   91.9756   12.7556 C.ar    1  UNL1       -0.0101
      7 C          64.1642   91.8752   11.5545 C.3     1  UNL1        0.0444
      8 C          63.0011   90.9280   11.5616 C.3     1  UNL1        0.0749
      9 N          62.7310   90.0811   12.7699 N.3     1  UNL1       -0.2934
     10 C          63.6238   90.1816   13.9710 C.3     1  UNL1        0.0954
     11 H          62.7609   89.1095   12.4612 H       1  UNL1        0.1236
     12 C          67.3008   96.3101    7.9154 C.3     1  UNL1        0.0897
     13 N          67.0307   95.4633    9.1237 N.3     1  UNL1       -0.2686
     14 C          67.4155   94.0135    9.1247 C.3     1  UNL1        0.0938
     15 C          67.1453   93.1667   10.3330 C.3     1  UNL1        0.1081
     16 N          66.4903   93.7696   11.5402 N.pl3   1  UNL1       -0.3049
     17 C          66.1055   95.2194   11.5392 C.3     1  UNL1        0.1081
     18 C          66.3757   96.0662   10.3310 C.3     1  UNL1        0.0938
     19 C          62.1083   90.8276   10.3605 C.3     1  UNL1        0.0886
     20 N          60.8247   90.0557   10.4425 N.3     1  UNL1       -0.2667
     21 C          59.6905   90.5731   11.2768 C.3     1  UNL1        0.0899
     22 C          60.6754   88.7666    9.6904 C.3     1  UNL1        0.0978
     23 C          59.8845   88.7288    8.4164 C.3     1  UNL1        0.0224
     24 C          59.7351   87.4397    7.6643 C.3     1  UNL1        0.0065
     25 C          60.3767   86.1882    8.1861 C.3     1  UNL1        0.0277
     26 C          61.1676   86.2259    9.4600 C.ar    1  UNL1       -0.0073
     27 C          61.8092   84.9745    9.9819 C.ar    1  UNL1       -0.0015
     28 C          62.6001   85.0123   11.2559 C.ar    1  UNL1        0.0203
     29 C          62.7494   86.3014   12.0080 C.ar    1  UNL1        0.0985
     30 N          62.1078   87.5529   11.4862 N.ar    1  UNL1       -0.2471
     31 C          61.3170   87.5151   10.2123 C.ar    1  UNL1        0.0695
@<TRIPOS>BOND
     1    12    13    1
     2    13    14    1
     3    14    15    1
     4    15    16    1
     5    16     1    1
     6     1     2   ar
     7     2     3   ar
     8     3     4   ar
     9     4     5   ar
    10     5     6   ar
    11     6     7    1
    12     7     8    1
    13     8    19    1
    14    19    20    1
    15    20    21    1
    16    22    20    1
    17    22    23    1
    18    23    24    1
    19    24    25    1
    20    25    26    1
    21    26    27   ar
    22    27    28   ar
    23    28    29   ar
    24    29    30   ar
    25    30    31   ar
    26     8     9    1
    27     9    10    1
    28    16    17    1
    29    17    18    1
    30    18    13    1
    31     6     1   ar
    32    31    22    1
    33    10     5    1
    34    31    26   ar
    35     9    11    1
@<TRIPOS>MOLECULE
*****
 31 35 0 0 0
SMALL
GASTEIGER

@<TRIPOS>ATOM
      1 C          63.5079   84.4862   12.3530 C.ar    1  UNL1        0.0436
      2 C          64.4101   83.3219   12.0696 C.ar    1  UNL1        0.0142
      3 C          64.6083   82.8527   10.6588 C.ar    1  UNL1        0.0010
      4 C          63.9042   83.5479    9.5313 C.ar    1  UNL1       -0.0032
      5 C          63.0020   84.7122    9.8148 C.ar    1  UNL1       -0.0091
      6 C          62.8039   85.1813   11.2256 C.ar    1  UNL1       -0.0101
      7 C          61.9016   86.3457   11.5091 C.3     1  UNL1        0.0444
      8 C          61.1976   87.0409   10.3817 C.3     1  UNL1        0.0749
      9 N          61.3958   86.5716    8.9707 N.3     1  UNL1       -0.2934
     10 C          62.2980   85.4073    8.6873 C.3     1  UNL1        0.0954
     11 H          61.7647   87.3646    8.4458 H       1  UNL1        0.1236
     12 C          62.7150   86.3629   17.9966 C.3     1  UNL1        0.0897
     13 N          62.9132   85.8938   16.5857 N.3     1  UNL1       -0.2686
     14 C          63.9278   86.5645   15.7079 C.3     1  UNL1        0.0938
     15 C          64.1261   86.0953   14.2970 C.3     1  UNL1        0.1081
     16 N          63.3097   84.9554   13.7640 N.pl3   1  UNL1       -0.3049
     17 C          62.2950   84.2847   14.6418 C.3     1  UNL1        0.1081
     18 C          62.0968   84.7538   16.0527 C.3     1  UNL1        0.0938
     19 C          60.2954   88.2052   10.6651 C.3     1  UNL1        0.0886
     20 N          60.6815   89.2182   11.7018 N.3     1  UNL1       -0.2667
     21 C          59.8348   89.3976   12.9270 C.3     1  UNL1        0.0899
     22 C          61.9141   90.0518   11.5134 C.3     1  UNL1        0.0978
     23 C          62.2323   90.6260   10.1646 C.3     1  UNL1        0.0224
     24 C          63.4650   91.4596    9.9761 C.3     1  UNL1        0.0065
     25 C          64.3796   91.7191   11.1364 C.3     1  UNL1        0.0277
     26 C          64.0614   91.1449   12.4852 C.ar    1  UNL1       -0.0073
     27 C          64.9760   91.4043   13.6454 C.ar    1  UNL1       -0.0015
     28 C          64.6578   90.8301   14.9942 C.ar    1  UNL1        0.0203
     29 C          63.4251   89.9965   15.1826 C.ar    1  UNL1        0.0985
     30 N          62.5106   89.7371   14.0224 N.ar    1  UNL1       -0.2471
     31 C          62.8287   90.3112   12.6736 C.ar    1  UNL1        0.0695
@<TRIPOS>BOND
     1    12    13    1
     2    13    14    1
     3    14    15    1
     4    15    16    1
     5    16     1    1
     6     1     2   ar
     7     2     3   ar
     8     3     4   ar
     9     4     5   ar
    10     5     6   ar
    11     6     7    1
    12     7     8    1
    13     8    19    1
    14    19    20    1
    15    20    21    1
    16    22    20    1
    17    22    23    1
    18    23    24    1
    19    24    25    1
    20    25    26    1
    21    26    27   ar
    22    27    28   ar
    23    28    29   ar
    24    29    30   ar
    25    30    31   ar
    26     8     9    1
    27     9    10    1
    28    16    17    1
    29    17    18    1
    30    18    13    1
    31     6     1   ar
    32    31    22    1
    33    10     5    1
    34    31    26   ar
    35     9    11    1
@<TRIPOS>MOLECULE
*****
 31 35 0 0 0
SMALL
GASTEIGER

@<TRIPOS>ATOM
      1 C          64.2393   90.2527   13.5603 C.ar    1  UNL1        0.0436
      2 C          65.3591   91.2386   13.7150 C.ar    1  UNL1        0.0142
      3 C          65.6725   92.1977   12.6051 C.ar    1  UNL1        0.0010
      4 C          64.8662   92.1709   11.3406 C.ar    1  UNL1       -0.0032
      5 C          63.7463   91.1850   11.1859 C.ar    1  UNL1       -0.0091
      6 C          63.4329   90.2259   12.2958 C.ar    1  UNL1       -0.0101
      7 C          62.3130   89.2400   12.1412 C.3     1  UNL1        0.0444
      8 C          61.5066   89.2132   10.8766 C.3     1  UNL1        0.0749
      9 N          61.8201   90.1723    9.7667 N.3     1  UNL1       -0.2934
     10 C          62.9399   91.1582    9.9214 C.3     1  UNL1        0.0954
     11 H          60.9725   90.7138    9.5973 H       1  UNL1        0.1236
     12 C          62.9854   86.4162   17.9998 C.3     1  UNL1        0.0897
     13 N          63.2988   87.3753   16.8900 N.3     1  UNL1       -0.2686
     14 C          63.9927   86.8891   15.6522 C.3     1  UNL1        0.0938
     15 C          64.3062   87.8483   14.5423 C.3     1  UNL1        0.1081
     16 N          63.9258   89.2935   14.6702 N.pl3   1  UNL1       -0.3049
     17 C          63.2319   89.7797   15.9080 C.3     1  UNL1        0.1081
     18 C          62.9184   88.8206   17.0179 C.3     1  UNL1        0.0938
     19 C          60.3868   88.2273   10.7220 C.3     1  UNL1        0.0886
     20 N          60.3327   87.3368    9.5161 N.3     1  UNL1       -0.2667
     21 C          59.2154   87.4823    8.5259 C.3     1  UNL1        0.0899
     22 C          61.3958   86.3009    9.3004 C.3     1  UNL1        0.0978
     23 C          61.8536   85.9742    7.9098 C.3     1  UNL1        0.0224
     24 C          62.9168   84.9383    7.6941 C.3     1  UNL1        0.0065
     25 C          63.5222   84.2290    8.8690 C.3     1  UNL1        0.0277
     26 C          63.0645   84.5556   10.2595 C.ar    1  UNL1       -0.0073
     27 C          63.6699   83.8463   11.4344 C.ar    1  UNL1       -0.0015
     28 C          63.2121   84.1730   12.8251 C.ar    1  UNL1        0.0203
     29 C          62.1490   85.2089   13.0408 C.ar    1  UNL1        0.0985
     30 N          61.5435   85.9182   11.8659 N.ar    1  UNL1       -0.2471
     31 C          62.0013   85.5916   10.4753 C.ar    1  UNL1        0.0695
@<TRIPOS>BOND
     1    12    13    1
     2    13    14    1
     3    14    15    1
     4    15    16    1
     5    16     1    1
     6     1     2   ar
     7     2     3   ar
     8     3     4   ar
     9     4     5   ar
    10     5     6   ar
    11     6     7    1
    12     7     8    1
    13     8    19    1
    14    19    20    1
    15    20    21    1
    16    22    20    1
    17    22    23    1
    18    23    24    1
    19    24    25    1
    20    25    26    1
    21    26    27   ar
    22    27    28   ar
    23    28    29   ar
    24    29    30   ar
    25    30    31   ar
    26     8     9    1
    27     9    10    1
    28    16    17    1
    29    17    18    1
    30    18    13    1
    31     6     1   ar
    32    31    22    1
    33    10     5    1
    34    31    26   ar
    35     9    11    1
@<TRIPOS>MOLECULE
*****
 31 35 0 0 0
SMALL
GASTEIGER

@<TRIPOS>ATOM
      1 C          65.3779   90.7865   14.2171 C.ar    1  UNL1        0.0436
      2 C          66.6758   91.3077   14.7588 C.ar    1  UNL1        0.0142
      3 C          67.4576   92.3257   13.9827 C.ar    1  UNL1        0.0010
      4 C          66.9414   92.8225   12.6648 C.ar    1  UNL1       -0.0032
      5 C          65.6434   92.3012   12.1231 C.ar    1  UNL1       -0.0091
      6 C          64.8616   91.2832   12.8993 C.ar    1  UNL1       -0.0101
      7 C          63.5636   90.7619   12.3576 C.3     1  UNL1        0.0444
      8 C          63.0474   91.2586   11.0397 C.3     1  UNL1        0.0749
      9 N          63.8292   92.2767   10.2635 N.3     1  UNL1       -0.2934
     10 C          65.1272   92.7979   10.8052 C.3     1  UNL1        0.0954
     11 H          63.2179   93.0833   10.1367 H       1  UNL1        0.1236
     12 C          62.2507   86.7143   17.3217 C.3     1  UNL1        0.0897
     13 N          63.0324   87.7323   16.5456 N.3     1  UNL1       -0.2686
     14 C          62.9293   89.1863   16.8995 C.3     1  UNL1        0.0938
     15 C          63.7112   90.2044   16.1233 C.3     1  UNL1        0.1081
     16 N          64.5960   89.7684   14.9933 N.pl3   1  UNL1       -0.3049
     17 C          64.6991   88.3144   14.6394 C.3     1  UNL1        0.1081
     18 C          63.9173   87.2964   15.4155 C.3     1  UNL1        0.0938
     19 C          61.7494   90.7373   10.4980 C.3     1  UNL1        0.0886
     20 N          61.0637   89.5860   11.1721 N.3     1  UNL1       -0.2667
     21 C          60.0705   89.8413   12.2668 C.3     1  UNL1        0.0899
     22 C          61.3712   88.1795   10.7514 C.3     1  UNL1        0.0978
     23 C          62.3154   87.3432   11.5634 C.3     1  UNL1        0.0224
     24 C          62.6228   85.9366   11.1427 C.3     1  UNL1        0.0065
     25 C          61.9861   85.3663    9.9101 C.3     1  UNL1        0.0277
     26 C          61.0420   86.2025    9.0981 C.ar    1  UNL1       -0.0073
     27 C          60.4053   85.6321    7.8655 C.ar    1  UNL1       -0.0015
     28 C          59.4611   86.4684    7.0536 C.ar    1  UNL1        0.0203
     29 C          59.1537   87.8750    7.4742 C.ar    1  UNL1        0.0985
     30 N          59.7903   88.4453    8.7068 N.ar    1  UNL1       -0.2471
     31 C          60.7345   87.6091    9.5188 C.ar    1  UNL1        0.0695
@<TRIPOS>BOND
     1    12    13    1
     2    13    14    1
     3    14    15    1
     4    15    16    1
     5    16     1    1
     6     1     2   ar
     7     2     3   ar
     8     3     4   ar
     9     4     5   ar
    10     5     6   ar
    11     6     7    1
    12     7     8    1
    13     8    19    1
    14    19    20    1
    15    20    21    1
    16    22    20    1
    17    22    23    1
    18    23    24    1
    19    24    25    1
    20    25    26    1
    21    26    27   ar
    22    27    28   ar
    23    28    29   ar
    24    29    30   ar
    25    30    31   ar
    26     8     9    1
    27     9    10    1
    28    16    17    1
    29    17    18    1
    30    18    13    1
    31     6     1   ar
    32    31    22    1
    33    10     5    1
    34    31    26   ar
    35     9    11    1
@<TRIPOS>MOLECULE
*****
 31 35 0 0 0
SMALL
GASTEIGER

@<TRIPOS>ATOM
      1 C          62.5928   84.5609   11.7549 C.ar    1  UNL1        0.0436
      2 C          62.3933   83.1113   11.4255 C.ar    1  UNL1        0.0142
      3 C          63.0103   82.0536   12.2918 C.ar    1  UNL1        0.0010
      4 C          63.8269   82.4455   13.4874 C.ar    1  UNL1       -0.0032
      5 C          64.0264   83.8952   13.8168 C.ar    1  UNL1       -0.0091
      6 C          63.4093   84.9529   12.9506 C.ar    1  UNL1       -0.0101
      7 C          63.6088   86.4027   13.2800 C.3     1  UNL1        0.0444
      8 C          64.4254   86.7947   14.4756 C.3     1  UNL1        0.0749
      9 N          65.0425   85.7369   15.3419 N.3     1  UNL1       -0.2934
     10 C          64.8430   84.2872   15.0125 C.3     1  UNL1        0.0954
     11 H          64.6774   85.8778   16.2838 H       1  UNL1        0.1236
     12 C          60.1245   88.7921    8.2900 C.3     1  UNL1        0.0897
     13 N          60.7416   87.7343    9.1562 N.3     1  UNL1       -0.2686
     14 C          61.7363   86.7743    8.5740 C.3     1  UNL1        0.0938
     15 C          62.3533   85.7165    9.4403 C.3     1  UNL1        0.1081
     16 N          61.9757   85.6188   10.8887 N.pl3   1  UNL1       -0.3049
     17 C          60.9811   86.5788   11.4708 C.3     1  UNL1        0.1081
     18 C          60.3640   87.6366   10.6047 C.3     1  UNL1        0.0938
     19 C          64.6249   88.2444   14.8050 C.3     1  UNL1        0.0886
     20 N          63.5699   89.2477   14.4438 N.3     1  UNL1       -0.2667
     21 C          62.3974   89.4638   15.3541 C.3     1  UNL1        0.0899
     22 C          63.6875   90.0348   13.1724 C.3     1  UNL1        0.0978
     23 C          62.9032   89.6248   11.9612 C.3     1  UNL1        0.0224
     24 C          63.0208   90.4120   10.6898 C.3     1  UNL1        0.0065
     25 C          63.9225   91.6092   10.6295 C.3     1  UNL1        0.0277
     26 C          64.7067   92.0192   11.8406 C.ar    1  UNL1       -0.0073
     27 C          65.6084   93.2164   11.7804 C.ar    1  UNL1       -0.0015
     28 C          66.3926   93.6264   12.9916 C.ar    1  UNL1        0.0203
     29 C          66.2751   92.8392   14.2630 C.ar    1  UNL1        0.0985
     30 N          65.3734   91.6420   14.3233 N.ar    1  UNL1       -0.2471
     31 C          64.5892   91.2320   13.1121 C.ar    1  UNL1        0.0695
@<TRIPOS>BOND
     1    12    13    1
     2    13    14    1
     3    14    15    1
     4    15    16    1
     5    16     1    1
     6     1     2   ar
     7     2     3   ar
     8     3     4   ar
     9     4     5   ar
    10     5     6   ar
    11     6     7    1
    12     7     8    1
    13     8    19    1
    14    19    20    1
    15    20    21    1
    16    22    20    1
    17    22    23    1
    18    23    24    1
    19    24    25    1
    20    25    26    1
    21    26    27   ar
    22    27    28   ar
    23    28    29   ar
    24    29    30   ar
    25    30    31   ar
    26     8     9    1
    27     9    10    1
    28    16    17    1
    29    17    18    1
    30    18    13    1
    31     6     1   ar
    32    31    22    1
    33    10     5    1
    34    31    26   ar
    35     9    11    1
@<TRIPOS>MOLECULE
*****
 31 35 0 0 0
SMALL
GASTEIGER

@<TRIPOS>ATOM
      1 C          63.4663   84.3864   12.5599 C.ar    1  UNL1        0.0436
      2 C          64.0493   83.0253   12.3206 C.ar    1  UNL1        0.0142
      3 C          64.2049   82.5118   10.9199 C.ar    1  UNL1        0.0010
      4 C          63.7775   83.3594    9.7585 C.ar    1  UNL1       -0.0032
      5 C          63.1946   84.7206    9.9978 C.ar    1  UNL1       -0.0091
      6 C          63.0390   85.2341   11.3985 C.ar    1  UNL1       -0.0101
      7 C          62.4560   86.5953   11.6379 C.3     1  UNL1        0.0444
      8 C          62.0286   87.4430   10.4765 C.3     1  UNL1        0.0749
      9 N          62.1843   86.9294    9.0757 N.3     1  UNL1       -0.2934
     10 C          62.7672   85.5683    8.8364 C.3     1  UNL1        0.0954
     11 H          62.7789   87.5953    8.5823 H       1  UNL1        0.1236
     12 C          62.8438   86.4407   18.1628 C.3     1  UNL1        0.0897
     13 N          62.9994   85.9272   16.7621 N.3     1  UNL1       -0.2686
     14 C          62.0944   84.8434   16.2558 C.3     1  UNL1        0.0938
     15 C          62.2500   84.3298   14.8550 C.3     1  UNL1        0.1081
     16 N          63.3106   84.9000   13.9607 N.pl3   1  UNL1       -0.3049
     17 C          64.2156   85.9838   14.4670 C.3     1  UNL1        0.1081
     18 C          64.0600   86.4974   15.8677 C.3     1  UNL1        0.0938
     19 C          61.4457   88.8042   10.7158 C.3     1  UNL1        0.0886
     20 N          62.3416   90.0063   10.7618 N.3     1  UNL1       -0.2667
     21 C          62.4717   90.8913    9.5576 C.3     1  UNL1        0.0899
     22 C          63.1075   90.3235   12.0118 C.3     1  UNL1        0.0978
     23 C          62.7740   89.6208   13.2945 C.3     1  UNL1        0.0224
     24 C          63.5399   89.9380   14.5445 C.3     1  UNL1        0.0065
     25 C          64.6394   90.9579   14.5121 C.3     1  UNL1        0.0277
     26 C          64.9729   91.6606   13.2295 C.ar    1  UNL1       -0.0073
     27 C          66.0724   92.6804   13.1970 C.ar    1  UNL1       -0.0015
     28 C          66.4059   93.3831   11.9144 C.ar    1  UNL1        0.0203
     29 C          65.6400   93.0659   10.6643 C.ar    1  UNL1        0.0985
     30 N          64.5406   92.0461   10.6968 N.ar    1  UNL1       -0.2471
     31 C          64.2070   91.3434   11.9794 C.ar    1  UNL1        0.0695
@<TRIPOS>BOND
     1    12    13    1
     2    13    14    1
     3    14    15    1
     4    15    16    1
     5    16     1    1
     6     1     2   ar
     7     2     3   ar
     8     3     4   ar
     9     4     5   ar
    10     5     6   ar
    11     6     7    1
    12     7     8    1
    13     8    19    1
    14    19    20    1
    15    20    21    1
    16    22    20    1
    17    22    23    1
    18    23    24    1
    19    24    25    1
    20    25    26    1
    21    26    27   ar
    22    27    28   ar
    23    28    29   ar
    24    29    30   ar
    25    30    31   ar
    26     8     9    1
    27     9    10    1
    28    16    17    1
    29    17    18    1
    30    18    13    1
    31     6     1   ar
    32    31    22    1
    33    10     5    1
    34    31    26   ar
    35     9    11    1
@<TRIPOS>MOLECULE
*****
 31 35 0 0 0
SMALL
GASTEIGER

@<TRIPOS>ATOM
      1 C          65.3511   90.9310   14.2127 C.ar    1  UNL1        0.0436
      2 C          66.6024   91.5147   14.7988 C.ar    1  UNL1        0.0142
      3 C          67.3719   92.5546   14.0395 C.ar    1  UNL1        0.0010
      4 C          66.8901   93.0107   12.6942 C.ar    1  UNL1       -0.0032
      5 C          65.6388   92.4270   12.1082 C.ar    1  UNL1       -0.0091
      6 C          64.8693   91.3871   12.8674 C.ar    1  UNL1       -0.0101
      7 C          63.6180   90.8033   12.2814 C.3     1  UNL1        0.0444
      8 C          63.1362   91.2595   10.9361 C.3     1  UNL1        0.0749
      9 N          63.9057   92.2994   10.1768 N.3     1  UNL1       -0.2934
     10 C          65.1570   92.8831   10.7629 C.3     1  UNL1        0.0954
     11 H          63.2667   93.0773   10.0128 H       1  UNL1        0.1236
     12 C          62.2730   86.7713   17.2496 C.3     1  UNL1        0.0897
     13 N          63.0425   87.8112   16.4904 N.3     1  UNL1       -0.2686
     14 C          62.8772   89.2629   16.8296 C.3     1  UNL1        0.0938
     15 C          63.6467   90.3029   16.0703 C.3     1  UNL1        0.1081
     16 N          64.5815   89.8910   14.9720 N.pl3   1  UNL1       -0.3049
     17 C          64.7469   88.4393   14.6328 C.3     1  UNL1        0.1081
     18 C          63.9774   87.3993   15.3919 C.3     1  UNL1        0.0938
     19 C          61.8849   90.6757   10.3500 C.3     1  UNL1        0.0886
     20 N          61.2656   89.4567   10.9668 N.3     1  UNL1       -0.2667
     21 C          60.7239   89.5161   12.3644 C.3     1  UNL1        0.0899
     22 C          61.1881   88.1782   10.1861 C.3     1  UNL1        0.0978
     23 C          60.4679   88.1452    8.8707 C.3     1  UNL1        0.0224
     24 C          60.3903   86.8668    8.0900 C.3     1  UNL1        0.0065
     25 C          61.0330   85.6213    8.6246 C.3     1  UNL1        0.0277
     26 C          61.7532   85.6543    9.9399 C.ar    1  UNL1       -0.0073
     27 C          62.3958   84.4088   10.4746 C.ar    1  UNL1       -0.0015
     28 C          63.1160   84.4419   11.7900 C.ar    1  UNL1        0.0203
     29 C          63.1936   85.7203   12.5707 C.ar    1  UNL1        0.0985
     30 N          62.5509   86.9657   12.0361 N.ar    1  UNL1       -0.2471
     31 C          61.8307   86.9328   10.7207 C.ar    1  UNL1        0.0695
@<TRIPOS>BOND
     1    12    13    1
     2    13    14    1
     3    14    15    1
     4    15    16    1
     5    16     1    1
     6     1     2   ar
     7     2     3   ar
     8     3     4   ar
     9     4     5   ar
    10     5     6   ar
    11     6     7    1
    12     7     8    1
    13     8    19    1
    14    19    20    1
    15    20    21    1
    16    22    20    1
    17    22    23    1
    18    23    24    1
    19    24    25    1
    20    25    26    1
    21    26    27   ar
    22    27    28   ar
    23    28    29   ar
    24    29    30   ar
    25    30    31   ar
    26     8     9    1
    27     9    10    1
    28    16    17    1
    29    17    18    1
    30    18    13    1
    31     6     1   ar
    32    31    22    1
    33    10     5    1
    34    31    26   ar
    35     9    11    1
@<TRIPOS>MOLECULE
*****
 31 35 0 0 0
SMALL
GASTEIGER

@<TRIPOS>ATOM
      1 C          61.2375   86.3932    9.3581 C.ar    1  UNL1        0.0436
      2 C          60.6057   85.9832    8.0610 C.ar    1  UNL1        0.0142
      3 C          59.7505   86.9549    7.3031 C.ar    1  UNL1        0.0010
      4 C          59.5272   88.3367    7.8424 C.ar    1  UNL1       -0.0032
      5 C          60.1591   88.7468    9.1395 C.ar    1  UNL1       -0.0091
      6 C          61.0142   87.7750    9.8974 C.ar    1  UNL1       -0.0101
      7 C          61.6462   88.1850   11.1946 C.3     1  UNL1        0.0444
      8 C          61.4228   89.5668   11.7339 C.3     1  UNL1        0.0749
      9 N          60.5676   90.5386   10.9759 N.3     1  UNL1       -0.2934
     10 C          59.9358   90.1285    9.6788 C.3     1  UNL1        0.0954
     11 H          61.1515   91.3505   10.7753 H       1  UNL1        0.1236
     12 C          64.6584   82.5063   12.3897 C.3     1  UNL1        0.0897
     13 N          63.8032   83.4780   11.6318 N.3     1  UNL1       -0.2686
     14 C          62.7982   84.3199   12.3608 C.3     1  UNL1        0.0938
     15 C          61.9430   85.2916   11.6029 C.3     1  UNL1        0.1081
     16 N          62.0928   85.4215   10.1160 N.pl3   1  UNL1       -0.3049
     17 C          63.0977   84.5796    9.3871 C.3     1  UNL1        0.1081
     18 C          63.9529   83.6079   10.1449 C.3     1  UNL1        0.0938
     19 C          62.0547   89.9769   13.0310 C.3     1  UNL1        0.0886
     20 N          63.5479   89.9701   13.1731 N.3     1  UNL1       -0.2667
     21 C          64.2327   88.8137   13.8394 C.3     1  UNL1        0.0899
     22 C          64.3565   91.1196   12.6488 C.3     1  UNL1        0.0978
     23 C          64.2628   91.5043   11.2019 C.3     1  UNL1        0.0224
     24 C          65.0713   92.6538   10.6777 C.3     1  UNL1        0.0065
     25 C          65.9735   93.4186   11.6002 C.3     1  UNL1        0.0277
     26 C          66.0673   93.0339   13.0470 C.ar    1  UNL1       -0.0073
     27 C          66.9695   93.7987   13.9695 C.ar    1  UNL1       -0.0015
     28 C          67.0632   93.4140   15.4163 C.ar    1  UNL1        0.0203
     29 C          66.2547   92.2645   15.9406 C.ar    1  UNL1        0.0985
     30 N          65.3524   91.4997   15.0181 N.ar    1  UNL1       -0.2471
     31 C          65.2587   91.8844   13.5713 C.ar    1  UNL1        0.0695
@<TRIPOS>BOND
     1    12    13    1
     2    13    14    1
     3    14    15    1
     4    15    16    1
     5    16     1    1
     6     1     2   ar
     7     2     3   ar
     8     3     4   ar
     9     4     5   ar
    10     5     6   ar
    11     6     7    1
    12     7     8    1
    13     8    19    1
    14    19    20    1
    15    20    21    1
    16    22    20    1
    17    22    23    1
    18    23    24    1
    19    24    25    1
    20    25    26    1
    21    26    27   ar
    22    27    28   ar
    23    28    29   ar
    24    29    30   ar
    25    30    31   ar
    26     8     9    1
    27     9    10    1
    28    16    17    1
    29    17    18    1
    30    18    13    1
    31     6     1   ar
    32    31    22    1
    33    10     5    1
    34    31    26   ar
    35     9    11    1
@<TRIPOS>MOLECULE
*****
 31 35 0 0 0
SMALL
GASTEIGER

@<TRIPOS>ATOM
      1 C          61.6104   86.5825   10.1957 C.ar    1  UNL1        0.0436
      2 C          60.5817   86.5012    9.1071 C.ar    1  UNL1        0.0142
      3 C          59.8452   87.7353    8.6775 C.ar    1  UNL1        0.0010
      4 C          60.1374   89.0507    9.3366 C.ar    1  UNL1       -0.0032
      5 C          61.1661   89.1320   10.4252 C.ar    1  UNL1       -0.0091
      6 C          61.9026   87.8980   10.8548 C.ar    1  UNL1       -0.0101
      7 C          62.9313   87.9793   11.9435 C.3     1  UNL1        0.0444
      8 C          63.2235   89.2947   12.6025 C.3     1  UNL1        0.0749
      9 N          62.4869   90.5288   12.1729 N.3     1  UNL1       -0.2934
     10 C          61.4582   90.4474   11.0843 C.3     1  UNL1        0.0954
     11 H          63.1907   91.1990   11.8634 H       1  UNL1        0.1236
     12 C          64.5566   81.6463   11.9144 C.3     1  UNL1        0.0897
     13 N          63.8201   82.8803   11.4847 N.3     1  UNL1       -0.2686
     14 C          63.9405   83.3722   10.0728 C.3     1  UNL1        0.0938
     15 C          63.2039   84.6063    9.6431 C.3     1  UNL1        0.1081
     16 N          62.3470   85.3484   10.6254 N.pl3   1  UNL1       -0.3049
     17 C          62.2266   84.8566   12.0373 C.3     1  UNL1        0.1081
     18 C          62.9631   83.6225   12.4670 C.3     1  UNL1        0.0938
     19 C          64.2521   89.3760   13.6912 C.3     1  UNL1        0.0886
     20 N          64.2051   90.4984   14.6852 N.3     1  UNL1       -0.2667
     21 C          63.1508   90.5116   15.7521 C.3     1  UNL1        0.0899
     22 C          65.2123   91.6075   14.6122 C.3     1  UNL1        0.0978
     23 C          65.9678   92.0166   15.8419 C.3     1  UNL1        0.0224
     24 C          66.9750   93.1257   15.7690 C.3     1  UNL1        0.0065
     25 C          67.2267   93.8258   14.4665 C.3     1  UNL1        0.0277
     26 C          66.4713   93.4168   13.2369 C.ar    1  UNL1       -0.0073
     27 C          66.7230   94.1169   11.9344 C.ar    1  UNL1       -0.0015
     28 C          65.9675   93.7078   10.7048 C.ar    1  UNL1        0.0203
     29 C          64.9603   92.5987   10.7777 C.ar    1  UNL1        0.0985
     30 N          64.7086   91.8986   12.0802 N.ar    1  UNL1       -0.2471
     31 C          65.4640   92.3076   13.3098 C.ar    1  UNL1        0.0695
@<TRIPOS>BOND
     1    12    13    1
     2    13    14    1
     3    14    15    1
     4    15    16    1
     5    16     1    1
     6     1     2   ar
     7     2     3   ar
     8     3     4   ar
     9     4     5   ar
    10     5     6   ar
    11     6     7    1
    12     7     8    1
    13     8    19    1
    14    19    20    1
    15    20    21    1
    16    22    20    1
    17    22    23    1
    18    23    24    1
    19    24    25    1
    20    25    26    1
    21    26    27   ar
    22    27    28   ar
    23    28    29   ar
    24    29    30   ar
    25    30    31   ar
    26     8     9    1
    27     9    10    1
    28    16    17    1
    29    17    18    1
    30    18    13    1
    31     6     1   ar
    32    31    22    1
    33    10     5    1
    34    31    26   ar
    35     9    11    1
