@<TRIPOS>MOLECULE
*****
 52 57 0 0 0
SMALL
GASTEIGER

@<TRIPOS>ATOM
      1 N          61.6091   89.3677   11.9271 N.am    1  UNL1       -0.2770
      2 C          62.0893   88.8797   10.5924 C.2     1  UNL1        0.2270
      3 O          63.5326   88.5195   10.4005 O.2     1  UNL1       -0.2748
      4 C          61.1260   88.7519    9.4497 C.3     1  UNL1        0.0964
      5 C          60.3419   89.9462    8.9926 C.3     1  UNL1        0.0780
      6 N          59.3786   89.8184    7.8499 N.3     1  UNL1       -0.2970
      7 C          59.1995   88.4963    7.1643 C.3     1  UNL1        0.0689
      8 C          59.9835   87.3021    7.6214 C.3     1  UNL1        0.0220
      9 C          60.9468   87.4299    8.7641 C.3     1  UNL1        0.0337
     10 H          59.6791   90.4821    7.1359 H       1  UNL1        0.1233
     11 C          61.7309   86.2356    9.2212 C.ar    1  UNL1       -0.0217
     12 C          61.5681   85.7227   10.6214 C.ar    1  UNL1       -0.0012
     13 C          62.3522   84.5284   11.0785 C.ar    1  UNL1        0.0366
     14 C          63.2990   83.8471   10.1355 C.ar    1  UNL1        0.1387
     15 C          63.4618   84.3600    8.7353 C.ar    1  UNL1        0.0366
     16 C          62.6777   85.5543    8.2782 C.ar    1  UNL1       -0.0012
     17 O          64.0831   82.6528   10.5926 O.3     1  UNL1       -0.4714
     18 C          63.4627   81.6641   11.5347 C.3     1  UNL1        0.2525
     19 C          63.7605   81.7384   13.0029 C.3     1  UNL1        0.2525
     20 O          64.6160   82.8477   13.5395 O.3     1  UNL1       -0.4697
     21 C          64.0530   83.8110   14.5420 C.ar    1  UNL1        0.1596
     22 C          64.8758   84.9758   15.0068 C.ar    1  UNL1        0.0921
     23 CL         66.2615   85.1774   14.4690 Cl      1  UNL1       -0.0791
     24 C          64.3129   85.9392   16.0094 C.ar    1  UNL1        0.0103
     25 C          62.9272   85.7377   16.5472 C.ar    1  UNL1       -0.0200
     26 C          62.3643   86.7010   17.5497 C.3     1  UNL1        0.0311
     27 C          62.1044   84.5727   16.0824 C.ar    1  UNL1        0.0103
     28 C          62.6673   83.6094   15.0798 C.ar    1  UNL1        0.0921
     29 CL         61.8446   82.4445   14.6151 Cl      1  UNL1       -0.0791
     30 C          60.1657   89.7278   12.1191 C.3     1  UNL1        0.0758
     31 C          59.0252   90.6792   11.9089 C.3     1  UNL1        0.0215
     32 C          58.8062   89.4004   12.6617 C.3     1  UNL1        0.0215
     33 C          62.5724   89.4954   13.0698 C.3     1  UNL1        0.1201
     34 C          65.4181   91.9785   14.2889 C.ar    1  UNL1       -0.0194
     35 C          64.3729   90.9028   14.3057 C.ar    1  UNL1       -0.0067
     36 C          63.6177   90.5712   13.0529 C.ar    1  UNL1        0.0004
     37 C          63.9077   91.3152   11.7832 C.ar    1  UNL1        0.0343
     38 C          64.9529   92.3909   11.7663 C.ar    1  UNL1        0.1380
     39 C          65.7081   92.7225   13.0191 C.ar    1  UNL1        0.0326
     40 O          65.2430   93.1349   10.4965 O.3     1  UNL1       -0.4755
     41 C          66.4779   93.9794   10.3874 C.3     1  UNL1        0.2062
     42 C          66.4552   95.2397    9.5743 C.3     1  UNL1        0.0545
     43 C          66.1269   96.6429    9.1582 C.3     1  UNL1        0.0048
     44 C          65.5672   96.0889   10.4348 C.3     1  UNL1        0.0048
     45 C          67.3353   94.8283    8.4315 C.3     1  UNL1        0.1089
     46 C          68.0552   93.5131    8.4749 C.1     1  UNL1        0.0733
     47 N          68.7750   92.1977    8.5185 N.1     1  UNL1       -0.1959
     48 C          66.1733   92.3102   15.5417 C.3     1  UNL1        0.0290
     49 C          67.5663   91.7894   15.7378 C.3     1  UNL1        0.0367
     50 C          68.7444   92.6728   15.4521 C.3     1  UNL1        0.1426
     51 C          68.9509   91.6310   13.0810 C.3     1  UNL1        0.1741
     52 O          69.4269   92.6046   14.1181 O.3     1  UNL1       -0.3511
@<TRIPOS>BOND
     1    51    52    1
     2    52    50    1
     3    50    49    1
     4    49    48    1
     5    48    34    1
     6    34    35   ar
     7    35    36   ar
     8    36    33    1
     9    33     1    1
    10     1     2   am
    11     2     3    2
    12     4     2    1
    13     4     5    1
    14     5     6    1
    15     6     7    1
    16     7     8    1
    17     8     9    1
    18     9    11    1
    19    11    12   ar
    20    12    13   ar
    21    13    14   ar
    22    14    17    1
    23    17    18    1
    24    18    19    1
    25    19    20    1
    26    20    21    1
    27    21    22   ar
    28    22    23    1
    29    22    24   ar
    30    24    25   ar
    31    25    26    1
    32    25    27   ar
    33    27    28   ar
    34    28    29    1
    35    14    15   ar
    36    15    16   ar
    37     1    30    1
    38    30    31    1
    39    31    32    1
    40    36    37   ar
    41    37    38   ar
    42    38    40    1
    43    40    41    1
    44    41    42    1
    45    42    45    1
    46    45    46    1
    47    46    47    3
    48    42    43    1
    49    43    44    1
    50    38    39   ar
    51    39    34   ar
    52     9     4    1
    53    16    11   ar
    54    32    30    1
    55    44    42    1
    56    28    21   ar
    57     6    10    1
@<TRIPOS>MOLECULE
*****
 52 57 0 0 0
SMALL
GASTEIGER

@<TRIPOS>ATOM
      1 N          60.9546   90.3176   11.3536 N.am    1  UNL1       -0.2770
      2 C          61.4617   89.8956   10.0064 C.2     1  UNL1        0.2270
      3 O          62.7135   90.5074    9.4508 O.2     1  UNL1       -0.2748
      4 C          60.7171   88.8616    9.2149 C.3     1  UNL1        0.0964
      5 C          59.8586   89.2780    8.0574 C.3     1  UNL1        0.0780
      6 N          59.1139   88.2441    7.2659 N.3     1  UNL1       -0.2970
      7 C          59.2277   86.7938    7.6319 C.3     1  UNL1        0.0689
      8 C          60.0862   86.3775    8.7893 C.3     1  UNL1        0.0220
      9 C          60.8308   87.4115    9.5808 C.3     1  UNL1        0.0337
     10 H          59.4292   88.3295    6.2996 H       1  UNL1        0.1233
     11 C          61.6893   86.9952   10.7383 C.ar    1  UNL1       -0.0217
     12 C          62.7773   87.9033   11.2299 C.ar    1  UNL1       -0.0012
     13 C          63.6358   87.4870   12.3874 C.ar    1  UNL1        0.0366
     14 C          63.4063   86.1627   13.0532 C.ar    1  UNL1        0.1387
     15 C          62.3184   85.2546   12.5616 C.ar    1  UNL1        0.0366
     16 C          61.4598   85.6708   11.4041 C.ar    1  UNL1       -0.0012
     17 O          64.2648   85.7464   14.2107 O.3     1  UNL1       -0.4714
     18 C          65.0783   84.4890   14.1271 C.3     1  UNL1        0.2525
     19 C          64.4498   83.1662   14.4512 C.3     1  UNL1        0.2525
     20 O          63.1339   82.7904   13.8368 O.3     1  UNL1       -0.4697
     21 C          63.0858   81.7887   12.7214 C.ar    1  UNL1        0.1596
     22 C          63.6836   82.1231   11.3869 C.ar    1  UNL1        0.0921
     23 CL         64.3294   83.4591   11.1679 Cl      1  UNL1       -0.0791
     24 C          63.6355   81.1214   10.2713 C.ar    1  UNL1        0.0103
     25 C          62.9896   79.7854   10.4904 C.ar    1  UNL1       -0.0200
     26 C          62.9415   78.7837    9.3749 C.3     1  UNL1        0.0311
     27 C          62.3919   79.4511   11.8249 C.ar    1  UNL1        0.0103
     28 C          62.4400   80.4527   12.9404 C.ar    1  UNL1        0.0921
     29 CL         61.8423   80.1184   14.2749 Cl      1  UNL1       -0.0791
     30 C          59.7029   89.7057   11.9092 C.3     1  UNL1        0.0758
     31 C          59.0223   88.6142   12.6807 C.3     1  UNL1        0.0215
     32 C          58.2154   89.7375   12.1000 C.3     1  UNL1        0.0215
     33 C          61.6993   91.3515   12.1451 C.3     1  UNL1        0.1201
     34 C          63.9897   89.4835   14.7936 C.ar    1  UNL1       -0.0194
     35 C          62.7879   89.8782   13.9874 C.ar    1  UNL1       -0.0067
     36 C          62.9012   90.9568   12.9512 C.ar    1  UNL1        0.0004
     37 C          64.2161   91.6408   12.7212 C.ar    1  UNL1        0.0343
     38 C          65.4179   91.2461   13.5273 C.ar    1  UNL1        0.1380
     39 C          65.3047   90.1674   14.5635 C.ar    1  UNL1        0.0326
     40 O          66.7330   91.9300   13.2973 O.3     1  UNL1       -0.4755
     41 C          66.7663   93.3307   12.7616 C.3     1  UNL1        0.2062
     42 C          66.7992   93.5666   11.2806 C.3     1  UNL1        0.0545
     43 C          66.6150   94.2490    9.9576 C.3     1  UNL1        0.0048
     44 C          66.1857   94.9341   11.2211 C.3     1  UNL1        0.0048
     45 C          67.4240   92.2811   10.8258 C.3     1  UNL1        0.1089
     46 C          68.1456   92.2215    9.5121 C.1     1  UNL1        0.0733
     47 N          68.8672   92.1619    8.1984 N.1     1  UNL1       -0.1959
     48 C          63.8765   88.4048   15.8298 C.3     1  UNL1        0.0290
     49 C          62.9472   88.5781   16.9943 C.3     1  UNL1        0.0367
     50 C          62.7522   87.4570   17.9716 C.3     1  UNL1        0.1426
     51 C          62.2952   85.2857   16.6200 C.3     1  UNL1        0.1741
     52 O          61.8527   86.3077   17.6249 O.3     1  UNL1       -0.3511
@<TRIPOS>BOND
     1    51    52    1
     2    52    50    1
     3    50    49    1
     4    49    48    1
     5    48    34    1
     6    34    35   ar
     7    35    36   ar
     8    36    33    1
     9    33     1    1
    10     1     2   am
    11     2     3    2
    12     4     2    1
    13     4     5    1
    14     5     6    1
    15     6     7    1
    16     7     8    1
    17     8     9    1
    18     9    11    1
    19    11    12   ar
    20    12    13   ar
    21    13    14   ar
    22    14    17    1
    23    17    18    1
    24    18    19    1
    25    19    20    1
    26    20    21    1
    27    21    22   ar
    28    22    23    1
    29    22    24   ar
    30    24    25   ar
    31    25    26    1
    32    25    27   ar
    33    27    28   ar
    34    28    29    1
    35    14    15   ar
    36    15    16   ar
    37     1    30    1
    38    30    31    1
    39    31    32    1
    40    36    37   ar
    41    37    38   ar
    42    38    40    1
    43    40    41    1
    44    41    42    1
    45    42    45    1
    46    45    46    1
    47    46    47    3
    48    42    43    1
    49    43    44    1
    50    38    39   ar
    51    39    34   ar
    52     9     4    1
    53    16    11   ar
    54    32    30    1
    55    44    42    1
    56    28    21   ar
    57     6    10    1
@<TRIPOS>MOLECULE
*****
 52 57 0 0 0
SMALL
GASTEIGER

@<TRIPOS>ATOM
      1 N          63.0160   90.2803   10.9835 N.am    1  UNL1       -0.2770
      2 C          61.6852   90.1841   10.2981 C.2     1  UNL1        0.2270
      3 O          61.5765   90.4640    8.8285 O.2     1  UNL1       -0.2748
      4 C          60.4631   89.8081   11.0823 C.3     1  UNL1        0.0964
      5 C          59.5265   90.8742   11.5686 C.3     1  UNL1        0.0780
      6 N          58.3044   90.4981   12.3528 N.3     1  UNL1       -0.2970
      7 C          58.0189   89.0559   12.6509 C.3     1  UNL1        0.0689
      8 C          58.9555   87.9899   12.1647 C.3     1  UNL1        0.0220
      9 C          60.1776   88.3660   11.3804 C.3     1  UNL1        0.0337
     10 H          57.5012   90.8566   11.8363 H       1  UNL1        0.1233
     11 C          61.1142   87.3000   10.8942 C.ar    1  UNL1       -0.0217
     12 C          61.2668   87.0498    9.4231 C.ar    1  UNL1       -0.0012
     13 C          62.2034   85.9838    8.9368 C.ar    1  UNL1        0.0366
     14 C          62.9873   85.1680    9.9217 C.ar    1  UNL1        0.1387
     15 C          62.8347   85.4182   11.3928 C.ar    1  UNL1        0.0366
     16 C          61.8981   86.4842   11.8790 C.ar    1  UNL1       -0.0012
     17 O          63.9239   84.1019    9.4354 O.3     1  UNL1       -0.4714
     18 C          64.4649   83.0840   10.3952 C.3     1  UNL1        0.2525
     19 C          63.6768   82.7110   11.6158 C.3     1  UNL1        0.2525
     20 O          64.3481   82.6638   12.9564 O.3     1  UNL1       -0.4697
     21 C          63.8736   83.5564   14.0646 C.ar    1  UNL1        0.1596
     22 C          62.5218   83.3379   14.6769 C.ar    1  UNL1        0.0921
     23 CL         61.6445   82.2268   14.1809 Cl      1  UNL1       -0.0791
     24 C          62.0472   84.2305   15.7851 C.ar    1  UNL1        0.0103
     25 C          62.9245   85.3415   16.2810 C.ar    1  UNL1       -0.0200
     26 C          62.4500   86.2341   17.3892 C.3     1  UNL1        0.0311
     27 C          64.2763   85.5600   15.6687 C.ar    1  UNL1        0.0103
     28 C          64.7508   84.6674   14.5606 C.ar    1  UNL1        0.0921
     29 CL         66.1026   84.8859   13.9483 Cl      1  UNL1       -0.0791
     30 C          63.1247   90.0004   12.4531 C.3     1  UNL1        0.0758
     31 C          62.8430   90.3900   13.8740 C.3     1  UNL1        0.0215
     32 C          63.5946   89.1261   13.5777 C.3     1  UNL1        0.0215
     33 C          64.2381   90.6564   10.1993 C.3     1  UNL1        0.1201
     34 C          66.9147   93.5863   10.1575 C.ar    1  UNL1       -0.0194
     35 C          66.0485   92.4512    9.6979 C.ar    1  UNL1       -0.0067
     36 C          65.1043   91.7916   10.6589 C.ar    1  UNL1        0.0004
     37 C          65.0262   92.2671   12.0793 C.ar    1  UNL1        0.0343
     38 C          65.8923   93.4023   12.5388 C.ar    1  UNL1        0.1380
     39 C          66.8366   94.0619   11.5779 C.ar    1  UNL1        0.0326
     40 O          65.8142   93.8779   13.9593 O.3     1  UNL1       -0.4755
     41 C          67.0688   94.0445   14.7645 C.3     1  UNL1        0.2062
     42 C          67.6204   92.8864   15.5419 C.3     1  UNL1        0.0545
     43 C          68.5635   92.0677   16.3726 C.3     1  UNL1        0.0048
     44 C          68.9395   93.4614   15.9652 C.3     1  UNL1        0.0048
     45 C          66.4928   91.9091   15.3887 C.3     1  UNL1        0.1089
     46 C          65.1958   92.1421   16.1050 C.1     1  UNL1        0.0733
     47 N          63.8986   92.3752   16.8215 N.1     1  UNL1       -0.1959
     48 C          67.8589   94.2459    9.1966 C.3     1  UNL1        0.0290
     49 C          67.3649   95.3284    8.2834 C.3     1  UNL1        0.0367
     50 C          67.0529   96.6888    8.8329 C.3     1  UNL1        0.1426
     51 C          64.7609   96.8496   10.0458 C.3     1  UNL1        0.1741
     52 O          66.2598   96.8225   10.0991 O.3     1  UNL1       -0.3511
@<TRIPOS>BOND
     1    51    52    1
     2    52    50    1
     3    50    49    1
     4    49    48    1
     5    48    34    1
     6    34    35   ar
     7    35    36   ar
     8    36    33    1
     9    33     1    1
    10     1     2   am
    11     2     3    2
    12     4     2    1
    13     4     5    1
    14     5     6    1
    15     6     7    1
    16     7     8    1
    17     8     9    1
    18     9    11    1
    19    11    12   ar
    20    12    13   ar
    21    13    14   ar
    22    14    17    1
    23    17    18    1
    24    18    19    1
    25    19    20    1
    26    20    21    1
    27    21    22   ar
    28    22    23    1
    29    22    24   ar
    30    24    25   ar
    31    25    26    1
    32    25    27   ar
    33    27    28   ar
    34    28    29    1
    35    14    15   ar
    36    15    16   ar
    37     1    30    1
    38    30    31    1
    39    31    32    1
    40    36    37   ar
    41    37    38   ar
    42    38    40    1
    43    40    41    1
    44    41    42    1
    45    42    45    1
    46    45    46    1
    47    46    47    3
    48    42    43    1
    49    43    44    1
    50    38    39   ar
    51    39    34   ar
    52     9     4    1
    53    16    11   ar
    54    32    30    1
    55    44    42    1
    56    28    21   ar
    57     6    10    1
@<TRIPOS>MOLECULE
*****
 52 57 0 0 0
SMALL
GASTEIGER

@<TRIPOS>ATOM
      1 N          62.3144   85.3460    9.4921 N.am    1  UNL1       -0.2770
      2 C          61.2760   86.2879   10.0256 C.2     1  UNL1        0.2270
      3 O          61.1324   86.4858   11.5055 O.2     1  UNL1       -0.2748
      4 C          60.3812   87.0318    9.0791 C.3     1  UNL1        0.0964
      5 C          59.4781   86.2758    8.1501 C.3     1  UNL1        0.0780
      6 N          58.5833   87.0198    7.2036 N.3     1  UNL1       -0.2970
      7 C          58.5916   88.5197    7.1861 C.3     1  UNL1        0.0689
      8 C          59.4947   89.2756    8.1150 C.3     1  UNL1        0.0220
      9 C          60.3895   88.5317    9.0615 C.3     1  UNL1        0.0337
     10 H          57.6275   86.7331    7.4151 H       1  UNL1        0.1233
     11 C          61.2926   89.2875    9.9905 C.ar    1  UNL1       -0.0217
     12 C          62.5750   89.8733    9.4783 C.ar    1  UNL1       -0.0012
     13 C          63.4781   90.6291   10.4072 C.ar    1  UNL1        0.0366
     14 C          63.0988   90.7994   11.8485 C.ar    1  UNL1        0.1387
     15 C          61.8164   90.2137   12.3607 C.ar    1  UNL1        0.0366
     16 C          60.9133   89.4578   11.4317 C.ar    1  UNL1       -0.0012
     17 O          64.0020   91.5553   12.7774 O.3     1  UNL1       -0.4714
     18 C          65.0464   92.4778   12.2224 C.3     1  UNL1        0.2525
     19 C          66.1664   92.9560   13.0981 C.3     1  UNL1        0.2525
     20 O          67.0713   94.0550   12.6253 O.3     1  UNL1       -0.4697
     21 C          66.8622   94.6690   11.2728 C.ar    1  UNL1        0.1596
     22 C          67.1782   93.8825   10.0353 C.ar    1  UNL1        0.0921
     23 CL         67.7033   92.4821   10.1502 Cl      1  UNL1       -0.0791
     24 C          66.9692   94.4965    8.6826 C.ar    1  UNL1        0.0103
     25 C          66.4442   95.8969    8.5677 C.ar    1  UNL1       -0.0200
     26 C          66.2352   96.5108    7.2152 C.3     1  UNL1        0.0311
     27 C          66.1282   96.6834    9.8053 C.ar    1  UNL1        0.0103
     28 C          66.3372   96.0694   11.1578 C.ar    1  UNL1        0.0921
     29 CL         66.0212   96.8559   12.3954 Cl      1  UNL1       -0.0791
     30 C          62.4581   85.1481    8.0122 C.3     1  UNL1        0.0758
     31 C          63.3082   84.8115    6.8231 C.3     1  UNL1        0.0215
     32 C          61.8568   85.1418    6.6381 C.3     1  UNL1        0.0215
     33 C          63.2092   84.6020   10.4386 C.3     1  UNL1        0.1201
     34 C          63.6740   86.6203   13.8240 C.ar    1  UNL1       -0.0194
     35 C          63.6823   86.2828   12.3625 C.ar    1  UNL1       -0.0067
     36 C          63.2010   84.9394   11.9002 C.ar    1  UNL1        0.0004
     37 C          62.7115   83.9335   12.8994 C.ar    1  UNL1        0.0343
     38 C          62.7033   84.2709   14.3609 C.ar    1  UNL1        0.1380
     39 C          63.1845   85.6143   14.8232 C.ar    1  UNL1        0.0326
     40 O          62.2137   83.2650   15.3602 O.3     1  UNL1       -0.4755
     41 C          62.6303   81.8287   15.2442 C.3     1  UNL1        0.2062
     42 C          62.1925   81.0138   14.0634 C.3     1  UNL1        0.0545
     43 C          62.2672   80.1062   12.8716 C.3     1  UNL1        0.0048
     44 C          63.5162   80.4639   13.6213 C.3     1  UNL1        0.0048
     45 C          60.7168   81.2807   14.0955 C.3     1  UNL1        0.1089
     46 C          59.7545   80.1495   14.3059 C.1     1  UNL1        0.0733
     47 N          58.7921   79.0182   14.5163 N.1     1  UNL1       -0.1959
     48 C          64.1553   87.9636   14.2863 C.3     1  UNL1        0.0290
     49 C          63.7391   88.4883   15.6285 C.3     1  UNL1        0.0367
     50 C          63.0482   89.8155   15.7337 C.3     1  UNL1        0.1426
     51 C          64.3378   91.9460   16.4739 C.3     1  UNL1        0.1741
     52 O          63.4470   90.7858   16.8059 O.3     1  UNL1       -0.3511
@<TRIPOS>BOND
     1    51    52    1
     2    52    50    1
     3    50    49    1
     4    49    48    1
     5    48    34    1
     6    34    35   ar
     7    35    36   ar
     8    36    33    1
     9    33     1    1
    10     1     2   am
    11     2     3    2
    12     4     2    1
    13     4     5    1
    14     5     6    1
    15     6     7    1
    16     7     8    1
    17     8     9    1
    18     9    11    1
    19    11    12   ar
    20    12    13   ar
    21    13    14   ar
    22    14    17    1
    23    17    18    1
    24    18    19    1
    25    19    20    1
    26    20    21    1
    27    21    22   ar
    28    22    23    1
    29    22    24   ar
    30    24    25   ar
    31    25    26    1
    32    25    27   ar
    33    27    28   ar
    34    28    29    1
    35    14    15   ar
    36    15    16   ar
    37     1    30    1
    38    30    31    1
    39    31    32    1
    40    36    37   ar
    41    37    38   ar
    42    38    40    1
    43    40    41    1
    44    41    42    1
    45    42    45    1
    46    45    46    1
    47    46    47    3
    48    42    43    1
    49    43    44    1
    50    38    39   ar
    51    39    34   ar
    52     9     4    1
    53    16    11   ar
    54    32    30    1
    55    44    42    1
    56    28    21   ar
    57     6    10    1
@<TRIPOS>MOLECULE
*****
 52 57 0 0 0
SMALL
GASTEIGER

@<TRIPOS>ATOM
      1 N          62.6947   85.3049    9.6430 N.am    1  UNL1       -0.2770
      2 C          61.6961   86.2603   10.2265 C.2     1  UNL1        0.2270
      3 O          61.7046   86.5477   11.6986 O.2     1  UNL1       -0.2748
      4 C          60.6892   86.9282    9.3377 C.3     1  UNL1        0.0964
      5 C          59.8126   86.1018    8.4440 C.3     1  UNL1        0.0780
      6 N          58.8057   86.7697    7.5552 N.3     1  UNL1       -0.2970
      7 C          58.6754   88.2641    7.5600 C.3     1  UNL1        0.0689
      8 C          59.5520   89.0904    8.4537 C.3     1  UNL1        0.0220
      9 C          60.5589   88.4225    9.3425 C.3     1  UNL1        0.0337
     10 H          57.8924   86.3937    7.8102 H       1  UNL1        0.1233
     11 C          61.4356   89.2489   10.2361 C.ar    1  UNL1       -0.0217
     12 C          61.1678   89.2992   11.7112 C.ar    1  UNL1       -0.0012
     13 C          62.0444   90.1256   12.6048 C.ar    1  UNL1        0.0366
     14 C          63.1888   90.9016   12.0234 C.ar    1  UNL1        0.1387
     15 C          63.4567   90.8513   10.5484 C.ar    1  UNL1        0.0366
     16 C          62.5800   90.0249    9.6547 C.ar    1  UNL1       -0.0012
     17 O          64.0655   91.7280   12.9171 O.3     1  UNL1       -0.4714
     18 C          65.4470   92.1057   12.4715 C.3     1  UNL1        0.2525
     19 C          65.9988   93.4599   12.8056 C.3     1  UNL1        0.2525
     20 O          67.1362   94.0243   12.0069 O.3     1  UNL1       -0.4697
     21 C          66.8651   94.7319   10.7124 C.ar    1  UNL1        0.1596
     22 C          66.2482   96.0991   10.7199 C.ar    1  UNL1        0.0921
     23 CL         65.9024   96.7588   12.0219 Cl      1  UNL1       -0.0791
     24 C          65.9772   96.8068    9.4254 C.ar    1  UNL1        0.0103
     25 C          66.3230   96.1472    8.1233 C.ar    1  UNL1       -0.0200
     26 C          66.0520   96.8548    6.8288 C.3     1  UNL1        0.0311
     27 C          66.9400   94.7799    8.1159 C.ar    1  UNL1        0.0103
     28 C          67.2110   94.0723    9.4104 C.ar    1  UNL1        0.0921
     29 CL         67.8279   92.7051    9.4028 Cl      1  UNL1       -0.0791
     30 C          62.6862   85.0175    8.1709 C.3     1  UNL1        0.0758
     31 C          63.4267   84.7116    6.9028 C.3     1  UNL1        0.0215
     32 C          61.9312   84.8256    6.8891 C.3     1  UNL1        0.0215
     33 C          63.7016   84.6370   10.5319 C.3     1  UNL1        0.1201
     34 C          63.6705   85.5241   14.3999 C.ar    1  UNL1       -0.0194
     35 C          63.9223   85.6248   12.9247 C.ar    1  UNL1       -0.0067
     36 C          63.4497   84.5363   12.0072 C.ar    1  UNL1        0.0004
     37 C          62.7254   83.3471   12.5649 C.ar    1  UNL1        0.0343
     38 C          62.4736   83.2464   14.0402 C.ar    1  UNL1        0.1380
     39 C          62.9462   84.3349   14.9577 C.ar    1  UNL1        0.0326
     40 O          61.7493   82.0572   14.5980 O.3     1  UNL1       -0.4755
     41 C          60.4828   81.5794   13.9517 C.3     1  UNL1        0.2062
     42 C          60.0188   80.1687   14.1631 C.3     1  UNL1        0.0545
     43 C          59.1047   79.0122   14.4403 C.3     1  UNL1        0.0048
     44 C          58.5618   80.4104   14.4257 C.3     1  UNL1        0.0048
     45 C          61.3145   79.4371   13.9741 C.3     1  UNL1        0.1089
     46 C          62.1900   79.7540   12.7981 C.1     1  UNL1        0.0733
     47 N          63.0656   80.0708   11.6220 N.1     1  UNL1       -0.1959
     48 C          64.1431   86.6126   15.3175 C.3     1  UNL1        0.0290
     49 C          63.3485   86.9593   16.5415 C.3     1  UNL1        0.0367
     50 C          62.9865   88.3879   16.8210 C.3     1  UNL1        0.1426
     51 C          63.7073   90.8409   16.3586 C.3     1  UNL1        0.1741
     52 O          63.3844   89.4651   15.8558 O.3     1  UNL1       -0.3511
@<TRIPOS>BOND
     1    51    52    1
     2    52    50    1
     3    50    49    1
     4    49    48    1
     5    48    34    1
     6    34    35   ar
     7    35    36   ar
     8    36    33    1
     9    33     1    1
    10     1     2   am
    11     2     3    2
    12     4     2    1
    13     4     5    1
    14     5     6    1
    15     6     7    1
    16     7     8    1
    17     8     9    1
    18     9    11    1
    19    11    12   ar
    20    12    13   ar
    21    13    14   ar
    22    14    17    1
    23    17    18    1
    24    18    19    1
    25    19    20    1
    26    20    21    1
    27    21    22   ar
    28    22    23    1
    29    22    24   ar
    30    24    25   ar
    31    25    26    1
    32    25    27   ar
    33    27    28   ar
    34    28    29    1
    35    14    15   ar
    36    15    16   ar
    37     1    30    1
    38    30    31    1
    39    31    32    1
    40    36    37   ar
    41    37    38   ar
    42    38    40    1
    43    40    41    1
    44    41    42    1
    45    42    45    1
    46    45    46    1
    47    46    47    3
    48    42    43    1
    49    43    44    1
    50    38    39   ar
    51    39    34   ar
    52     9     4    1
    53    16    11   ar
    54    32    30    1
    55    44    42    1
    56    28    21   ar
    57     6    10    1
@<TRIPOS>MOLECULE
*****
 52 57 0 0 0
SMALL
GASTEIGER

@<TRIPOS>ATOM
      1 N          63.1760   90.2120   12.1654 N.am    1  UNL1       -0.2770
      2 C          62.1378   90.1725   11.0834 C.2     1  UNL1        0.2270
      3 O          62.5275   90.4409    9.6600 O.2     1  UNL1       -0.2748
      4 C          60.7100   89.8645   11.4249 C.3     1  UNL1        0.0964
      5 C          59.7869   90.9665   11.8534 C.3     1  UNL1        0.0780
      6 N          58.3591   90.6586   12.1948 N.3     1  UNL1       -0.2970
      7 C          57.8544   89.2487   12.1078 C.3     1  UNL1        0.0689
      8 C          58.7775   88.1468   11.6792 C.3     1  UNL1        0.0220
      9 C          60.2053   88.4547   11.3378 C.3     1  UNL1        0.0337
     10 H          57.7795   91.2180   11.5691 H       1  UNL1        0.1233
     11 C          61.1284   87.3528   10.9093 C.ar    1  UNL1       -0.0217
     12 C          61.5073   87.2110    9.4648 C.ar    1  UNL1       -0.0012
     13 C          62.4304   86.1091    9.0363 C.ar    1  UNL1        0.0366
     14 C          62.9746   85.1490   10.0522 C.ar    1  UNL1        0.1387
     15 C          62.5958   85.2908   11.4966 C.ar    1  UNL1        0.0366
     16 C          61.6726   86.3927   11.9252 C.ar    1  UNL1       -0.0012
     17 O          63.8978   84.0470    9.6236 O.3     1  UNL1       -0.4714
     18 C          64.6538   83.2594   10.6522 C.3     1  UNL1        0.2525
     19 C          63.9145   82.5629   11.7559 C.3     1  UNL1        0.2525
     20 O          64.4856   82.5393   13.1428 O.3     1  UNL1       -0.4697
     21 C          63.9615   83.4814   14.1858 C.ar    1  UNL1        0.1596
     22 C          62.5920   83.2757   14.7620 C.ar    1  UNL1        0.0921
     23 CL         61.7465   82.1279   14.2953 Cl      1  UNL1       -0.0791
     24 C          62.0679   84.2177   15.8051 C.ar    1  UNL1        0.0103
     25 C          62.9134   85.3655   16.2719 C.ar    1  UNL1       -0.0200
     26 C          62.3893   86.3075   17.3149 C.3     1  UNL1        0.0311
     27 C          64.2830   85.5712   15.6956 C.ar    1  UNL1        0.0103
     28 C          64.8070   84.6291   14.6526 C.ar    1  UNL1        0.0921
     29 CL         66.1765   84.8348   14.0764 Cl      1  UNL1       -0.0791
     30 C          62.7863   89.9435   13.5888 C.3     1  UNL1        0.0758
     31 C          63.0861   90.0297   15.0561 C.3     1  UNL1        0.0215
     32 C          61.8117   89.3925   14.5871 C.3     1  UNL1        0.0215
     33 C          64.6038   90.5199   11.8240 C.3     1  UNL1        0.1201
     34 C          66.4354   92.9565   14.3653 C.ar    1  UNL1       -0.0194
     35 C          65.7759   91.7339   13.7995 C.ar    1  UNL1       -0.0067
     36 C          65.2633   91.7426   12.3898 C.ar    1  UNL1        0.0004
     37 C          65.4103   92.9739   11.5459 C.ar    1  UNL1        0.0343
     38 C          66.0698   94.1966   12.1118 C.ar    1  UNL1        0.1380
     39 C          66.5823   94.1878   13.5214 C.ar    1  UNL1        0.0326
     40 O          66.2167   95.4280   11.2679 O.3     1  UNL1       -0.4755
     41 C          67.2729   95.4868   10.2044 C.3     1  UNL1        0.2062
     42 C          66.8796   95.6264    8.7637 C.3     1  UNL1        0.0545
     43 C          66.2351   96.1751    7.5253 C.3     1  UNL1        0.0048
     44 C          66.0197   96.8527    8.8460 C.3     1  UNL1        0.0048
     45 C          67.6030   94.4487    8.1809 C.3     1  UNL1        0.1089
     46 C          68.1545   93.3854    9.0837 C.1     1  UNL1        0.0733
     47 N          68.7061   92.3221    9.9866 N.1     1  UNL1       -0.1959
     48 C          66.9480   92.9478   15.7750 C.3     1  UNL1        0.0290
     49 C          68.3115   92.3988   16.0738 C.3     1  UNL1        0.0367
     50 C          69.5304   93.0753   15.5200 C.3     1  UNL1        0.1426
     51 C          69.3313   91.6836   13.3352 C.3     1  UNL1        0.1741
     52 O          70.0991   92.6358   14.2034 O.3     1  UNL1       -0.3511
@<TRIPOS>BOND
     1    51    52    1
     2    52    50    1
     3    50    49    1
     4    49    48    1
     5    48    34    1
     6    34    35   ar
     7    35    36   ar
     8    36    33    1
     9    33     1    1
    10     1     2   am
    11     2     3    2
    12     4     2    1
    13     4     5    1
    14     5     6    1
    15     6     7    1
    16     7     8    1
    17     8     9    1
    18     9    11    1
    19    11    12   ar
    20    12    13   ar
    21    13    14   ar
    22    14    17    1
    23    17    18    1
    24    18    19    1
    25    19    20    1
    26    20    21    1
    27    21    22   ar
    28    22    23    1
    29    22    24   ar
    30    24    25   ar
    31    25    26    1
    32    25    27   ar
    33    27    28   ar
    34    28    29    1
    35    14    15   ar
    36    15    16   ar
    37     1    30    1
    38    30    31    1
    39    31    32    1
    40    36    37   ar
    41    37    38   ar
    42    38    40    1
    43    40    41    1
    44    41    42    1
    45    42    45    1
    46    45    46    1
    47    46    47    3
    48    42    43    1
    49    43    44    1
    50    38    39   ar
    51    39    34   ar
    52     9     4    1
    53    16    11   ar
    54    32    30    1
    55    44    42    1
    56    28    21   ar
    57     6    10    1
@<TRIPOS>MOLECULE
*****
 52 57 0 0 0
SMALL
GASTEIGER

@<TRIPOS>ATOM
      1 N          63.1169   90.3447   11.6708 N.am    1  UNL1       -0.2770
      2 C          61.9650   90.2429   10.7154 C.2     1  UNL1        0.2270
      3 O          62.1827   90.4791    9.2502 O.2     1  UNL1       -0.2748
      4 C          60.5954   89.9048   11.2252 C.3     1  UNL1        0.0964
      5 C          59.6570   91.0001   11.6373 C.3     1  UNL1        0.0780
      6 N          58.2874   90.6620   12.1472 N.3     1  UNL1       -0.2970
      7 C          57.8563   89.2286   12.2449 C.3     1  UNL1        0.0689
      8 C          58.7946   88.1333   11.8328 C.3     1  UNL1        0.0220
      9 C          60.1642   88.4715   11.3229 C.3     1  UNL1        0.0337
     10 H          57.6208   91.1287   11.5322 H       1  UNL1        0.1233
     11 C          61.1026   87.3762   10.9108 C.ar    1  UNL1       -0.0217
     12 C          61.2774   87.0454    9.4582 C.ar    1  UNL1       -0.0012
     13 C          62.2158   85.9502    9.0461 C.ar    1  UNL1        0.0366
     14 C          62.9794   85.1857   10.0866 C.ar    1  UNL1        0.1387
     15 C          62.8047   85.5165   11.5391 C.ar    1  UNL1        0.0366
     16 C          61.8662   86.6118   11.9513 C.ar    1  UNL1       -0.0012
     17 O          63.9179   84.0905    9.6744 O.3     1  UNL1       -0.4714
     18 C          64.6988   83.3415   10.7132 C.3     1  UNL1        0.2525
     19 C          64.0096   82.3403   11.5923 C.3     1  UNL1        0.2525
     20 O          64.4141   82.2006   13.0300 O.3     1  UNL1       -0.4697
     21 C          63.8997   83.1711   14.0515 C.ar    1  UNL1        0.1596
     22 C          64.7465   84.3351   14.4733 C.ar    1  UNL1        0.0921
     23 CL         66.1077   84.5287   13.8735 Cl      1  UNL1       -0.0791
     24 C          64.2321   85.3056   15.4949 C.ar    1  UNL1        0.0103
     25 C          62.8709   85.1121   16.0946 C.ar    1  UNL1       -0.0200
     26 C          62.3566   86.0825   17.1162 C.3     1  UNL1        0.0311
     27 C          62.0241   83.9480   15.6728 C.ar    1  UNL1        0.0103
     28 C          62.5385   82.9775   14.6513 C.ar    1  UNL1        0.0921
     29 CL         61.6917   81.8135   14.2295 Cl      1  UNL1       -0.0791
     30 C          62.8992   90.1085   13.1360 C.3     1  UNL1        0.0758
     31 C          63.3951   90.1741   14.5502 C.3     1  UNL1        0.0215
     32 C          62.0264   89.6337   14.2596 C.3     1  UNL1        0.0215
     33 C          64.4865   90.6828   11.1610 C.3     1  UNL1        0.1201
     34 C          65.7834   94.3715   10.4813 C.ar    1  UNL1       -0.0194
     35 C          65.2126   93.0042   10.2477 C.ar    1  UNL1       -0.0067
     36 C          65.0574   92.0502   11.3947 C.ar    1  UNL1        0.0004
     37 C          65.4730   92.4635   12.7754 C.ar    1  UNL1        0.0343
     38 C          66.0439   93.8307   13.0091 C.ar    1  UNL1        0.1380
     39 C          66.1990   94.7848   11.8620 C.ar    1  UNL1        0.0326
     40 O          66.4595   94.2441   14.3899 O.3     1  UNL1       -0.4755
     41 C          66.9771   93.2196   15.3555 C.3     1  UNL1        0.2062
     42 C          68.4550   93.0491   15.5474 C.3     1  UNL1        0.0545
     43 C          69.8616   93.3327   15.9844 C.3     1  UNL1        0.0048
     44 C          68.7632   94.2976   16.3195 C.3     1  UNL1        0.0048
     45 C          68.6601   91.7413   14.8420 C.3     1  UNL1        0.1089
     46 C          68.7241   91.6992   13.3440 C.1     1  UNL1        0.0733
     47 N          68.7881   91.6570   11.8459 N.1     1  UNL1       -0.1959
     48 C          65.9386   95.3255    9.3343 C.3     1  UNL1        0.0290
     49 C          67.3014   95.6147    8.7784 C.3     1  UNL1        0.0367
     50 C          68.3542   94.5463    8.7799 C.3     1  UNL1        0.1426
     51 C          68.8629   92.0056    8.5899 C.3     1  UNL1        0.1741
     52 O          68.0619   93.2044    8.1764 O.3     1  UNL1       -0.3511
@<TRIPOS>BOND
     1    51    52    1
     2    52    50    1
     3    50    49    1
     4    49    48    1
     5    48    34    1
     6    34    35   ar
     7    35    36   ar
     8    36    33    1
     9    33     1    1
    10     1     2   am
    11     2     3    2
    12     4     2    1
    13     4     5    1
    14     5     6    1
    15     6     7    1
    16     7     8    1
    17     8     9    1
    18     9    11    1
    19    11    12   ar
    20    12    13   ar
    21    13    14   ar
    22    14    17    1
    23    17    18    1
    24    18    19    1
    25    19    20    1
    26    20    21    1
    27    21    22   ar
    28    22    23    1
    29    22    24   ar
    30    24    25   ar
    31    25    26    1
    32    25    27   ar
    33    27    28   ar
    34    28    29    1
    35    14    15   ar
    36    15    16   ar
    37     1    30    1
    38    30    31    1
    39    31    32    1
    40    36    37   ar
    41    37    38   ar
    42    38    40    1
    43    40    41    1
    44    41    42    1
    45    42    45    1
    46    45    46    1
    47    46    47    3
    48    42    43    1
    49    43    44    1
    50    38    39   ar
    51    39    34   ar
    52     9     4    1
    53    16    11   ar
    54    32    30    1
    55    44    42    1
    56    28    21   ar
    57     6    10    1
@<TRIPOS>MOLECULE
*****
 52 57 0 0 0
SMALL
GASTEIGER

@<TRIPOS>ATOM
      1 N          64.2222   85.3808   14.5433 N.am    1  UNL1       -0.2770
      2 C          64.6104   84.3523   13.5227 C.2     1  UNL1        0.2270
      3 O          65.7747   84.6026   12.6109 O.2     1  UNL1       -0.2748
      4 C          63.8341   83.0733   13.4141 C.3     1  UNL1        0.0964
      5 C          64.1331   81.9334   14.3421 C.3     1  UNL1        0.0780
      6 N          63.3568   80.6545   14.2334 N.3     1  UNL1       -0.2970
      7 C          62.2816   80.5155   13.1967 C.3     1  UNL1        0.0689
      8 C          61.9827   81.6554   12.2688 C.3     1  UNL1        0.0220
      9 C          62.7589   82.9344   12.3774 C.3     1  UNL1        0.0337
     10 H          62.9140   80.5009   15.1394 H       1  UNL1        0.1233
     11 C          62.4600   84.0743   11.4495 C.ar    1  UNL1       -0.0217
     12 C          61.5502   85.1822   11.8911 C.ar    1  UNL1       -0.0012
     13 C          61.2513   86.3221   10.9631 C.ar    1  UNL1        0.0366
     14 C          61.8622   86.3542    9.5935 C.ar    1  UNL1        0.1387
     15 C          62.7719   85.2464    9.1519 C.ar    1  UNL1        0.0366
     16 C          63.0709   84.1064   10.0799 C.ar    1  UNL1       -0.0012
     17 O          61.5632   87.4942    8.6655 O.3     1  UNL1       -0.4714
     18 C          60.1509   87.7617    8.2367 C.3     1  UNL1        0.2525
     19 C          59.7471   89.1396    7.8028 C.3     1  UNL1        0.2525
     20 O          58.7968   89.3163    6.6558 O.3     1  UNL1       -0.4697
     21 C          59.0309   90.4027    5.6484 C.ar    1  UNL1        0.1596
     22 C          60.4310   90.7835    5.2678 C.ar    1  UNL1        0.0921
     23 CL         61.5968   90.0778    5.8945 Cl      1  UNL1       -0.0791
     24 C          60.6652   91.8699    4.2603 C.ar    1  UNL1        0.0103
     25 C          59.4993   92.5756    3.6336 C.ar    1  UNL1       -0.0200
     26 C          59.7335   93.6620    2.6262 C.3     1  UNL1        0.0311
     27 C          58.0992   92.1948    4.0143 C.ar    1  UNL1        0.0103
     28 C          57.8651   91.1084    5.0216 C.ar    1  UNL1        0.0921
     29 CL         56.4651   90.7277    5.4023 Cl      1  UNL1       -0.0791
     30 C          63.0578   85.1304   15.4551 C.3     1  UNL1        0.0758
     31 C          61.7195   84.5030   15.7108 C.3     1  UNL1        0.0215
     32 C          62.3793   85.3241   16.7787 C.3     1  UNL1        0.0215
     33 C          64.9985   86.6597   14.6519 C.3     1  UNL1        0.1201
     34 C          63.0147   89.2721   12.4181 C.ar    1  UNL1       -0.0194
     35 C          63.6206   87.9845   12.8922 C.ar    1  UNL1       -0.0067
     36 C          64.3925   87.9474   14.1778 C.ar    1  UNL1        0.0004
     37 C          64.5586   89.1980   14.9893 C.ar    1  UNL1        0.0343
     38 C          63.9526   90.4856   14.5151 C.ar    1  UNL1        0.1380
     39 C          63.1807   90.5227   13.2295 C.ar    1  UNL1        0.0326
     40 O          64.1187   91.7363   15.3266 O.3     1  UNL1       -0.4755
     41 C          65.4826   92.3300   15.5188 C.3     1  UNL1        0.2062
     42 C          66.5119   92.2115   14.4342 C.3     1  UNL1        0.0545
     43 C          67.8167   91.9174   13.7553 C.3     1  UNL1        0.0048
     44 C          67.6629   91.6650   15.2258 C.3     1  UNL1        0.0048
     45 C          65.7185   92.7167   13.2657 C.3     1  UNL1        0.1089
     46 C          66.3763   93.5778   12.2286 C.1     1  UNL1        0.0733
     47 N          67.0341   94.4389   11.1913 N.1     1  UNL1       -0.1959
     48 C          62.2427   89.3092   11.1325 C.3     1  UNL1        0.0290
     49 C          61.2190   90.3813   10.9030 C.3     1  UNL1        0.0367
     50 C          59.8576   90.2631   11.5215 C.3     1  UNL1        0.1426
     51 C          58.2390   88.8511   12.9831 C.3     1  UNL1        0.1741
     52 O          59.6295   89.3086   12.6560 O.3     1  UNL1       -0.3511
@<TRIPOS>BOND
     1    51    52    1
     2    52    50    1
     3    50    49    1
     4    49    48    1
     5    48    34    1
     6    34    35   ar
     7    35    36   ar
     8    36    33    1
     9    33     1    1
    10     1     2   am
    11     2     3    2
    12     4     2    1
    13     4     5    1
    14     5     6    1
    15     6     7    1
    16     7     8    1
    17     8     9    1
    18     9    11    1
    19    11    12   ar
    20    12    13   ar
    21    13    14   ar
    22    14    17    1
    23    17    18    1
    24    18    19    1
    25    19    20    1
    26    20    21    1
    27    21    22   ar
    28    22    23    1
    29    22    24   ar
    30    24    25   ar
    31    25    26    1
    32    25    27   ar
    33    27    28   ar
    34    28    29    1
    35    14    15   ar
    36    15    16   ar
    37     1    30    1
    38    30    31    1
    39    31    32    1
    40    36    37   ar
    41    37    38   ar
    42    38    40    1
    43    40    41    1
    44    41    42    1
    45    42    45    1
    46    45    46    1
    47    46    47    3
    48    42    43    1
    49    43    44    1
    50    38    39   ar
    51    39    34   ar
    52     9     4    1
    53    16    11   ar
    54    32    30    1
    55    44    42    1
    56    28    21   ar
    57     6    10    1
