@<TRIPOS>MOLECULE
*****
 34 39 0 0 0
SMALL
GASTEIGER

@<TRIPOS>ATOM
      1 C          60.7261   89.1201   10.1788 C.3     1  UNL1        0.1095
      2 C          59.9875   90.1697    9.4023 C.3     1  UNL1        0.1598
      3 O          59.5177   89.8792    8.0077 O.3     1  UNL1       -0.3508
      4 C          59.7865   88.5392    7.3897 C.3     1  UNL1        0.1598
      5 C          60.5252   87.4896    8.1661 C.3     1  UNL1        0.1091
      6 N          60.9949   87.7801    9.5607 N.3     1  UNL1       -0.1533
      7 C          61.1959   89.4107   11.5734 C.3     1  UNL1        0.0261
      8 C          59.8766   89.4794   12.2837 C.3     1  UNL1        0.0020
      9 C          61.1508   89.6900   13.0464 C.3     1  UNL1        0.0020
     10 C          62.6785   89.4428   11.3475 C.3     1  UNL1        0.0867
     11 O          63.1235   91.5204    9.8523 O.2     1  UNL1       -0.2749
     12 C          63.3736   90.7517   11.1158 C.2     1  UNL1        0.2258
     13 N          64.3187   91.2919   12.1477 N.am    1  UNL1       -0.2768
     14 C          64.5689   90.5231   13.4113 C.3     1  UNL1        0.1091
     15 C          65.5141   91.0633   14.4432 C.3     1  UNL1        0.0741
     16 C          66.4924   91.9478   15.1578 C.3     1  UNL1        0.0189
     17 C          66.7493   93.1472   14.2946 C.3     1  UNL1        0.0189
     18 C          65.9298   93.0042   13.0464 C.3     1  UNL1        0.0741
     19 C          65.0139   92.6007   11.9161 C.3     1  UNL1        0.1091
     20 N          65.1663   91.7162   13.1383 N.3     1  UNL1       -0.2969
     21 H          65.4260   91.1040   12.3649 H       1  UNL1        0.1233
     22 C          60.7940   86.1497    7.5480 C.3     1  UNL1        0.0189
     23 C          61.7644   85.1195    7.0510 C.3     1  UNL1        0.0015
     24 C          60.2893   84.8589    6.9742 C.3     1  UNL1        0.0015
     25 S          61.7336   86.7306   10.3372 S.O2    1  UNL1        0.0634
     26 O          62.9197   86.8976    9.4345 O.2     1  UNL1       -0.1528
     27 O          60.8585   86.3563   11.2946 O.2     1  UNL1       -0.1528
     28 C          62.4721   85.6810   11.1137 C.ar    1  UNL1        0.1223
     29 C          62.9263   84.4246   10.4320 C.ar    1  UNL1        0.0208
     30 C          63.6649   83.3749   11.2084 C.ar    1  UNL1        0.0128
     31 C          63.9492   83.5819   12.6666 C.ar    1  UNL1        0.0578
     32 CL         64.6878   82.5323   13.4430 Cl      1  UNL1       -0.0822
     33 C          63.4950   84.8384   13.3483 C.ar    1  UNL1        0.0128
     34 C          62.7565   85.8880   12.5719 C.ar    1  UNL1        0.0208
@<TRIPOS>BOND
     1    11    12    2
     2    12    10    1
     3    10     7    1
     4     1     7    1
     5     1     2    1
     6     2     3    1
     7     3     4    1
     8     4     5    1
     9     5    22    1
    10    22    23    1
    11    23    24    1
    12     5     6    1
    13     6    25    1
    14    25    26    2
    15    25    27    2
    16    25    28    1
    17    28    29   ar
    18    29    30   ar
    19    30    31   ar
    20    31    32    1
    21    31    33   ar
    22    33    34   ar
    23     7     8    1
    24     8     9    1
    25    12    13   am
    26    13    14    1
    27    14    15    1
    28    15    16    1
    29    16    17    1
    30    17    18    1
    31    18    19    1
    32    18    20    1
    33     9     7    1
    34    19    13    1
    35     6     1    1
    36    34    28   ar
    37    20    15    1
    38    24    22    1
    39    20    21    1
@<TRIPOS>MOLECULE
*****
 34 39 0 0 0
SMALL
GASTEIGER

@<TRIPOS>ATOM
      1 C          63.1445   90.6753   11.5041 C.3     1  UNL1        0.1095
      2 C          63.3789   91.5447   10.3044 C.3     1  UNL1        0.1598
      3 O          64.5267   92.5103   10.2906 O.3     1  UNL1       -0.3508
      4 C          65.4400   92.6065   11.4765 C.3     1  UNL1        0.1598
      5 C          65.2057   91.7371   12.6762 C.3     1  UNL1        0.1091
      6 N          64.0579   90.7715   12.6900 N.3     1  UNL1       -0.1533
      7 C          61.9968   89.7097   11.5178 C.3     1  UNL1        0.0261
      8 C          60.8525   90.6627   11.3383 C.3     1  UNL1        0.0020
      9 C          60.5900   89.1916   11.4676 C.3     1  UNL1        0.0020
     10 C          62.7425   88.4213   11.7021 C.3     1  UNL1        0.0867
     11 O          62.1650   87.5617    9.3194 O.2     1  UNL1       -0.2749
     12 C          62.5211   87.2837   10.7497 C.2     1  UNL1        0.2258
     13 N          62.6559   85.8684   11.2277 N.am    1  UNL1       -0.2768
     14 C          63.0121   85.5905   12.6581 C.3     1  UNL1        0.1091
     15 C          63.1469   84.1750   13.1360 C.3     1  UNL1        0.0741
     16 C          63.1720   82.6755   13.1655 C.3     1  UNL1        0.0189
     17 C          62.8387   82.1793   11.7898 C.3     1  UNL1        0.0189
     18 C          62.6074   83.3720   10.9101 C.3     1  UNL1        0.0741
     19 C          62.4346   84.7309   10.2753 C.3     1  UNL1        0.1091
     20 N          62.7979   84.6055   11.7421 N.3     1  UNL1       -0.2969
     21 H          61.9365   85.1515   11.7540 H       1  UNL1        0.1233
     22 C          66.1191   91.8334   13.8621 C.3     1  UNL1        0.0189
     23 C          67.4615   91.6015   14.4899 C.3     1  UNL1        0.0015
     24 C          66.3591   92.2319   15.2881 C.3     1  UNL1        0.0015
     25 S          63.8236   89.9021   13.8897 S.O2    1  UNL1        0.0634
     26 O          62.9899   90.9835   14.5105 O.2     1  UNL1       -0.1528
     27 O          64.5006   88.7685   13.6087 O.2     1  UNL1       -0.1528
     28 C          63.5893   89.0327   15.0893 C.ar    1  UNL1        0.1223
     29 C          63.9015   87.5670   15.0256 C.ar    1  UNL1        0.0208
     30 C          63.6673   86.6974   16.2252 C.ar    1  UNL1        0.0128
     31 C          63.1209   87.2937   17.4885 C.ar    1  UNL1        0.0578
     32 CL         62.8866   86.4242   18.6881 Cl      1  UNL1       -0.0822
     33 C          62.8087   88.7594   17.5522 C.ar    1  UNL1        0.0128
     34 C          63.0429   89.6290   16.3526 C.ar    1  UNL1        0.0208
@<TRIPOS>BOND
     1    11    12    2
     2    12    10    1
     3    10     7    1
     4     1     7    1
     5     1     2    1
     6     2     3    1
     7     3     4    1
     8     4     5    1
     9     5    22    1
    10    22    23    1
    11    23    24    1
    12     5     6    1
    13     6    25    1
    14    25    26    2
    15    25    27    2
    16    25    28    1
    17    28    29   ar
    18    29    30   ar
    19    30    31   ar
    20    31    32    1
    21    31    33   ar
    22    33    34   ar
    23     7     8    1
    24     8     9    1
    25    12    13   am
    26    13    14    1
    27    14    15    1
    28    15    16    1
    29    16    17    1
    30    17    18    1
    31    18    19    1
    32    18    20    1
    33     9     7    1
    34    19    13    1
    35     6     1    1
    36    34    28   ar
    37    20    15    1
    38    24    22    1
    39    20    21    1
@<TRIPOS>MOLECULE
*****
 34 39 0 0 0
SMALL
GASTEIGER

@<TRIPOS>ATOM
      1 C          63.5526   88.3775   13.3424 C.3     1  UNL1        0.1095
      2 C          64.4116   88.1767   14.5556 C.3     1  UNL1        0.1598
      3 O          64.8299   86.7935   14.9578 O.3     1  UNL1       -0.3508
      4 C          64.3892   85.6112   14.1467 C.3     1  UNL1        0.1598
      5 C          63.5302   85.8120   12.9335 C.3     1  UNL1        0.1091
      6 N          63.1119   87.1952   12.5314 N.3     1  UNL1       -0.1533
      7 C          63.1344   89.7608   12.9402 C.3     1  UNL1        0.0261
      8 C          61.6633   89.6804   13.2221 C.3     1  UNL1        0.0020
      9 C          62.2556   90.9492   12.6845 C.3     1  UNL1        0.0020
     10 C          64.4602   90.3216   12.5187 C.3     1  UNL1        0.0867
     11 O          64.9676   91.7445   14.6324 O.2     1  UNL1       -0.2749
     12 C          64.9711   91.5874   13.1407 C.2     1  UNL1        0.2258
     13 N          65.4854   92.6959   12.2709 N.am    1  UNL1       -0.2768
     14 C          65.4888   92.5388   10.7791 C.3     1  UNL1        0.1091
     15 C          66.0032   93.6474    9.9093 C.3     1  UNL1        0.0741
     16 C          66.5828   94.9556    9.4593 C.3     1  UNL1        0.0189
     17 C          66.8758   95.7771   10.6796 C.3     1  UNL1        0.0189
     18 C          66.4772   94.9767   11.8840 C.3     1  UNL1        0.0741
     19 C          65.9963   93.9617   12.8928 C.3     1  UNL1        0.1091
     20 N          65.9379   93.6604   11.4079 N.3     1  UNL1       -0.2969
     21 H          64.9707   93.5518   11.7131 H       1  UNL1        0.1233
     22 C          63.0896   84.6296   12.1226 C.3     1  UNL1        0.0189
     23 C          62.4138   83.2933   12.0355 C.3     1  UNL1        0.0015
     24 C          63.0021   83.9178   10.8051 C.3     1  UNL1        0.0015
     25 S          62.2530   87.3960   11.3182 S.O2    1  UNL1        0.0634
     26 O          61.1195   86.6929   12.0043 O.2     1  UNL1       -0.1528
     27 O          63.0558   88.0537   10.4548 O.2     1  UNL1       -0.1528
     28 C          61.3941   87.5969   10.1049 C.ar    1  UNL1        0.1223
     29 C          60.9545   86.4145    9.2933 C.ar    1  UNL1        0.0208
     30 C          60.0956   86.6153    8.0800 C.ar    1  UNL1        0.0128
     31 C          59.6763   87.9984    7.6785 C.ar    1  UNL1        0.0578
     32 CL         58.8174   88.1992    6.4652 Cl      1  UNL1       -0.0822
     33 C          60.1159   89.1807    8.4901 C.ar    1  UNL1        0.0128
     34 C          60.9748   88.9800    9.7034 C.ar    1  UNL1        0.0208
@<TRIPOS>BOND
     1    11    12    2
     2    12    10    1
     3    10     7    1
     4     1     7    1
     5     1     2    1
     6     2     3    1
     7     3     4    1
     8     4     5    1
     9     5    22    1
    10    22    23    1
    11    23    24    1
    12     5     6    1
    13     6    25    1
    14    25    26    2
    15    25    27    2
    16    25    28    1
    17    28    29   ar
    18    29    30   ar
    19    30    31   ar
    20    31    32    1
    21    31    33   ar
    22    33    34   ar
    23     7     8    1
    24     8     9    1
    25    12    13   am
    26    13    14    1
    27    14    15    1
    28    15    16    1
    29    16    17    1
    30    17    18    1
    31    18    19    1
    32    18    20    1
    33     9     7    1
    34    19    13    1
    35     6     1    1
    36    34    28   ar
    37    20    15    1
    38    24    22    1
    39    20    21    1
@<TRIPOS>MOLECULE
*****
 34 39 0 0 0
SMALL
GASTEIGER

@<TRIPOS>ATOM
      1 C          60.7205   94.9158   -1.3338 C.3     1  UNL1        0.1095
      2 C          61.0877   95.6813   -2.5704 C.3     1  UNL1        0.1598
      3 O          62.5282   95.9694   -2.8739 O.3     1  UNL1       -0.3508
      4 C          63.6012   95.4922   -1.9408 C.3     1  UNL1        0.1598
      5 C          63.2340   94.7267   -0.7042 C.3     1  UNL1        0.1091
      6 N          61.7935   94.4385   -0.4007 N.3     1  UNL1       -0.1533
      7 C          59.2800   94.6277   -1.0302 C.3     1  UNL1        0.0261
      8 C          58.8794   95.9315   -0.4064 C.3     1  UNL1        0.0020
      9 C          57.8742   94.8271   -0.5467 C.3     1  UNL1        0.0020
     10 C          59.1804   93.2236   -1.5487 C.3     1  UNL1        0.0867
     11 O          56.9053   92.0168   -1.2058 O.2     1  UNL1       -0.2749
     12 C          57.8810   92.7191   -2.1028 C.2     1  UNL1        0.2258
     13 N          57.5573   92.9171   -3.5540 N.am    1  UNL1       -0.2768
     14 C          58.5330   93.6195   -4.4511 C.3     1  UNL1        0.1091
     15 C          58.2092   93.8175   -5.9024 C.3     1  UNL1        0.0741
     16 C          57.4954   93.7904   -7.2213 C.3     1  UNL1        0.0189
     17 C          56.1819   93.0937   -7.0233 C.3     1  UNL1        0.0189
     18 C          56.0838   92.6901   -5.5820 C.3     1  UNL1        0.0741
     19 C          56.2579   92.4127   -4.1082 C.3     1  UNL1        0.1091
     20 N          57.3368   93.1374   -4.8892 N.3     1  UNL1       -0.2969
     21 H          57.8237   92.3304   -4.4991 H       1  UNL1        0.1233
     22 C          64.3071   94.2495    0.2288 C.3     1  UNL1        0.0189
     23 C          65.3830   93.2634    0.5752 C.3     1  UNL1        0.0015
     24 C          65.0900   94.4088    1.4983 C.3     1  UNL1        0.0015
     25 S          61.4263   93.6731    0.8359 S.O2    1  UNL1        0.0634
     26 O          61.2728   94.9617    1.5880 O.2     1  UNL1       -0.1528
     27 O          61.4803   92.3811    0.4484 O.2     1  UNL1       -0.1528
     28 C          61.0590   92.9076    2.0725 C.ar    1  UNL1        0.1223
     29 C          59.6537   92.9557    2.5945 C.ar    1  UNL1        0.0208
     30 C          59.2863   92.1902    3.8311 C.ar    1  UNL1        0.0128
     31 C          60.3244   91.3766    4.5455 C.ar    1  UNL1        0.0578
     32 CL         59.9571   90.6111    5.7821 Cl      1  UNL1       -0.0822
     33 C          61.7298   91.3285    4.0235 C.ar    1  UNL1        0.0128
     34 C          62.0971   92.0940    2.7869 C.ar    1  UNL1        0.0208
@<TRIPOS>BOND
     1    11    12    2
     2    12    10    1
     3    10     7    1
     4     1     7    1
     5     1     2    1
     6     2     3    1
     7     3     4    1
     8     4     5    1
     9     5    22    1
    10    22    23    1
    11    23    24    1
    12     5     6    1
    13     6    25    1
    14    25    26    2
    15    25    27    2
    16    25    28    1
    17    28    29   ar
    18    29    30   ar
    19    30    31   ar
    20    31    32    1
    21    31    33   ar
    22    33    34   ar
    23     7     8    1
    24     8     9    1
    25    12    13   am
    26    13    14    1
    27    14    15    1
    28    15    16    1
    29    16    17    1
    30    17    18    1
    31    18    19    1
    32    18    20    1
    33     9     7    1
    34    19    13    1
    35     6     1    1
    36    34    28   ar
    37    20    15    1
    38    24    22    1
    39    20    21    1
@<TRIPOS>MOLECULE
*****
 34 39 0 0 0
SMALL
GASTEIGER

@<TRIPOS>ATOM
      1 C          63.2250   90.3099   13.5692 C.3     1  UNL1        0.1095
      2 C          62.4592   89.6937   14.7023 C.3     1  UNL1        0.1598
      3 O          62.8564   89.9811   16.1199 O.3     1  UNL1       -0.3508
      4 C          64.0194   90.8847   16.4044 C.3     1  UNL1        0.1598
      5 C          64.7851   91.5010   15.2713 C.3     1  UNL1        0.1091
      6 N          64.3879   91.2136   13.8537 N.3     1  UNL1       -0.1533
      7 C          62.8278   90.0225   12.1516 C.3     1  UNL1        0.0261
      8 C          61.9455   91.2055   11.8833 C.3     1  UNL1        0.0020
      9 C          62.1720   90.1806   10.8119 C.3     1  UNL1        0.0020
     10 C          63.5721   88.7396   11.9275 C.3     1  UNL1        0.0867
     11 O          61.8451   87.3445   10.5780 O.2     1  UNL1       -0.2749
     12 C          62.8165   87.4614   11.7150 C.2     1  UNL1        0.2258
     13 N          63.0322   86.3000   12.6394 N.am    1  UNL1       -0.2768
     14 C          64.0036   86.4169   13.7765 C.3     1  UNL1        0.1091
     15 C          64.2194   85.2554   14.7010 C.3     1  UNL1        0.0741
     16 C          64.1164   83.9020   15.3394 C.3     1  UNL1        0.0189
     17 C          63.1194   83.0966   14.5603 C.3     1  UNL1        0.0189
     18 C          62.6060   83.9522   13.4402 C.3     1  UNL1        0.0741
     19 C          62.2766   85.0218   12.4270 C.3     1  UNL1        0.1091
     20 N          63.2859   85.2865   13.5272 N.3     1  UNL1       -0.2969
     21 H          62.5907   86.0214   13.6572 H       1  UNL1        0.1233
     22 C          65.9480   92.4046   15.5559 C.3     1  UNL1        0.0189
     23 C          66.7980   93.5837   15.1854 C.3     1  UNL1        0.0015
     24 C          67.1123   92.7907   16.4192 C.3     1  UNL1        0.0015
     25 S          65.1537   91.8298   12.7206 S.O2    1  UNL1        0.0634
     26 O          66.3248   90.9456   13.0312 O.2     1  UNL1       -0.1528
     27 O          64.2977   92.7362   12.2027 O.2     1  UNL1       -0.1528
     28 C          65.9194   92.4461   11.5875 C.ar    1  UNL1        0.1223
     29 C          65.3301   93.5921   10.8200 C.ar    1  UNL1        0.0208
     30 C          66.0957   94.2085    9.6869 C.ar    1  UNL1        0.0128
     31 C          67.4506   93.6788    9.3214 C.ar    1  UNL1        0.0578
     32 CL         68.2162   94.2952    8.1883 Cl      1  UNL1       -0.0822
     33 C          68.0399   92.5328   10.0890 C.ar    1  UNL1        0.0128
     34 C          67.2743   91.9164   11.2221 C.ar    1  UNL1        0.0208
@<TRIPOS>BOND
     1    11    12    2
     2    12    10    1
     3    10     7    1
     4     1     7    1
     5     1     2    1
     6     2     3    1
     7     3     4    1
     8     4     5    1
     9     5    22    1
    10    22    23    1
    11    23    24    1
    12     5     6    1
    13     6    25    1
    14    25    26    2
    15    25    27    2
    16    25    28    1
    17    28    29   ar
    18    29    30   ar
    19    30    31   ar
    20    31    32    1
    21    31    33   ar
    22    33    34   ar
    23     7     8    1
    24     8     9    1
    25    12    13   am
    26    13    14    1
    27    14    15    1
    28    15    16    1
    29    16    17    1
    30    17    18    1
    31    18    19    1
    32    18    20    1
    33     9     7    1
    34    19    13    1
    35     6     1    1
    36    34    28   ar
    37    20    15    1
    38    24    22    1
    39    20    21    1
@<TRIPOS>MOLECULE
*****
 34 39 0 0 0
SMALL
GASTEIGER

@<TRIPOS>ATOM
      1 C          61.1367   95.4387   -1.0132 C.3     1  UNL1        0.1095
      2 C          61.5720   96.3587   -2.1151 C.3     1  UNL1        0.1598
      3 O          62.9864   96.8559   -2.1622 O.3     1  UNL1       -0.3508
      4 C          63.9655   96.4330   -1.1075 C.3     1  UNL1        0.1598
      5 C          63.5303   95.5130   -0.0057 C.3     1  UNL1        0.1091
      6 N          62.1158   95.0158    0.0415 N.3     1  UNL1       -0.1533
      7 C          59.7223   94.9416   -0.9660 C.3     1  UNL1        0.0261
      8 C          59.1374   95.9129    0.0159 C.3     1  UNL1        0.0020
      9 C          58.2753   94.8418   -0.5835 C.3     1  UNL1        0.0020
     10 C          59.8159   93.7975   -1.9316 C.3     1  UNL1        0.0867
     11 O          59.0264   94.6670   -4.2491 O.2     1  UNL1       -0.2749
     12 C          60.0904   94.0612   -3.3826 C.2     1  UNL1        0.2258
     13 N          61.4288   93.7191   -3.9669 N.am    1  UNL1       -0.2768
     14 C          62.4929   93.1133   -3.1003 C.3     1  UNL1        0.1091
     15 C          63.8314   92.7712   -3.6847 C.3     1  UNL1        0.0741
     16 C          64.9635   92.6010   -4.6540 C.3     1  UNL1        0.0189
     17 C          64.5076   93.1030   -5.9918 C.3     1  UNL1        0.0189
     18 C          63.0938   93.5835   -5.8497 C.3     1  UNL1        0.0741
     19 C          61.7033   93.9828   -5.4178 C.3     1  UNL1        0.1091
     20 N          62.6758   93.3784   -4.4237 N.3     1  UNL1       -0.2969
     21 H          61.8724   92.7513   -4.3852 H       1  UNL1        0.1233
     22 C          64.5095   95.0901    1.0490 C.3     1  UNL1        0.0189
     23 C          65.0586   95.2202    2.4388 C.3     1  UNL1        0.0015
     24 C          65.6563   94.2278    1.4861 C.3     1  UNL1        0.0015
     25 S          61.6806   94.0958    1.1434 S.O2    1  UNL1        0.0634
     26 O          61.3606   95.2804    2.0060 O.2     1  UNL1       -0.1528
     27 O          61.8654   92.8610    0.6300 O.2     1  UNL1       -0.1528
     28 C          61.2454   93.1757    2.2452 C.ar    1  UNL1        0.1223
     29 C          59.8328   93.2227    2.7473 C.ar    1  UNL1        0.0208
     30 C          59.3975   92.3026    3.8491 C.ar    1  UNL1        0.0128
     31 C          60.3749   91.3356    4.4488 C.ar    1  UNL1        0.0578
     32 CL         59.9396   90.4156    5.5507 Cl      1  UNL1       -0.0822
     33 C          61.7875   91.2887    3.9468 C.ar    1  UNL1        0.0128
     34 C          62.2228   92.2088    2.8449 C.ar    1  UNL1        0.0208
@<TRIPOS>BOND
     1    11    12    2
     2    12    10    1
     3    10     7    1
     4     1     7    1
     5     1     2    1
     6     2     3    1
     7     3     4    1
     8     4     5    1
     9     5    22    1
    10    22    23    1
    11    23    24    1
    12     5     6    1
    13     6    25    1
    14    25    26    2
    15    25    27    2
    16    25    28    1
    17    28    29   ar
    18    29    30   ar
    19    30    31   ar
    20    31    32    1
    21    31    33   ar
    22    33    34   ar
    23     7     8    1
    24     8     9    1
    25    12    13   am
    26    13    14    1
    27    14    15    1
    28    15    16    1
    29    16    17    1
    30    17    18    1
    31    18    19    1
    32    18    20    1
    33     9     7    1
    34    19    13    1
    35     6     1    1
    36    34    28   ar
    37    20    15    1
    38    24    22    1
    39    20    21    1
@<TRIPOS>MOLECULE
*****
 34 39 0 0 0
SMALL
GASTEIGER

@<TRIPOS>ATOM
      1 C          60.8996   89.1505   10.3484 C.3     1  UNL1        0.1095
      2 C          60.2836   90.2595    9.5479 C.3     1  UNL1        0.1598
      3 O          59.8874   90.0235    8.1206 O.3     1  UNL1       -0.3508
      4 C          60.1071   88.6786    7.4938 C.3     1  UNL1        0.1598
      5 C          60.7231   87.5696    8.2942 C.3     1  UNL1        0.1091
      6 N          61.1193   87.8056    9.7216 N.3     1  UNL1       -0.1533
      7 C          61.2958   89.3864   11.7758 C.3     1  UNL1        0.0261
      8 C          59.9467   89.6321   12.3834 C.3     1  UNL1        0.0020
      9 C          61.1756   89.6792   13.2420 C.3     1  UNL1        0.0020
     10 C          62.7827   89.2226   11.6638 C.3     1  UNL1        0.0867
     11 O          63.8704   89.3299   14.0208 O.2     1  UNL1       -0.2749
     12 C          63.6883   89.9035   12.6469 C.2     1  UNL1        0.2258
     13 N          64.4117   91.1580   12.2559 N.am    1  UNL1       -0.2768
     14 C          64.2295   91.7316   10.8819 C.3     1  UNL1        0.1091
     15 C          64.9530   92.9862   10.4909 C.3     1  UNL1        0.0741
     16 C          65.8351   94.1984   10.5396 C.3     1  UNL1        0.0189
     17 C          66.4631   94.2603   11.9003 C.3     1  UNL1        0.0189
     18 C          65.9692   93.0864   12.6928 C.3     1  UNL1        0.0741
     19 C          65.3173   91.8389   13.2388 C.3     1  UNL1        0.1091
     20 N          65.0358   92.2989   11.8216 N.3     1  UNL1       -0.2969
     21 H          64.1110   92.2616   12.2501 H       1  UNL1        0.1233
     22 C          60.9428   86.2248    7.6673 C.3     1  UNL1        0.0189
     23 C          61.8730   85.1363    7.2204 C.3     1  UNL1        0.0015
     24 C          60.3932   84.9839    7.0284 C.3     1  UNL1        0.0015
     25 S          61.7353   86.6966   10.5220 S.O2    1  UNL1        0.0634
     26 O          62.9649   86.7613    9.6655 O.2     1  UNL1       -0.1528
     27 O          60.7956   86.3986   11.4443 O.2     1  UNL1       -0.1528
     28 C          62.3512   85.5876   11.3225 C.ar    1  UNL1        0.1223
     29 C          62.8804   85.8609   12.6991 C.ar    1  UNL1        0.0208
     30 C          63.4963   84.7520   13.4997 C.ar    1  UNL1        0.0128
     31 C          63.5829   83.3697   12.9236 C.ar    1  UNL1        0.0578
     32 CL         64.1988   82.2608   13.7242 Cl      1  UNL1       -0.0822
     33 C          63.0537   83.0964   11.5470 C.ar    1  UNL1        0.0128
     34 C          62.4378   84.2053   10.7464 C.ar    1  UNL1        0.0208
@<TRIPOS>BOND
     1    11    12    2
     2    12    10    1
     3    10     7    1
     4     1     7    1
     5     1     2    1
     6     2     3    1
     7     3     4    1
     8     4     5    1
     9     5    22    1
    10    22    23    1
    11    23    24    1
    12     5     6    1
    13     6    25    1
    14    25    26    2
    15    25    27    2
    16    25    28    1
    17    28    29   ar
    18    29    30   ar
    19    30    31   ar
    20    31    32    1
    21    31    33   ar
    22    33    34   ar
    23     7     8    1
    24     8     9    1
    25    12    13   am
    26    13    14    1
    27    14    15    1
    28    15    16    1
    29    16    17    1
    30    17    18    1
    31    18    19    1
    32    18    20    1
    33     9     7    1
    34    19    13    1
    35     6     1    1
    36    34    28   ar
    37    20    15    1
    38    24    22    1
    39    20    21    1
@<TRIPOS>MOLECULE
*****
 34 39 0 0 0
SMALL
GASTEIGER

@<TRIPOS>ATOM
      1 C          64.4136   90.1696   14.9357 C.3     1  UNL1        0.1095
      2 C          65.4410   90.8421   15.7972 C.3     1  UNL1        0.1598
      3 O          66.3007   91.9313   15.2274 O.3     1  UNL1       -0.3508
      4 C          66.1330   92.3479   13.7963 C.3     1  UNL1        0.1598
      5 C          65.1056   91.6754   12.9348 C.3     1  UNL1        0.1091
      6 N          64.2459   90.5862   13.5046 N.3     1  UNL1       -0.1533
      7 C          63.5539   89.0804   15.5055 C.3     1  UNL1        0.0261
      8 C          62.5747   89.9040   16.2882 C.3     1  UNL1        0.0020
      9 C          62.4578   88.4087   16.2783 C.3     1  UNL1        0.0020
     10 C          64.2345   87.8785   14.9206 C.3     1  UNL1        0.0867
     11 O          64.0172   86.2500   16.9332 O.2     1  UNL1       -0.2749
     12 C          63.9343   86.5107   15.4584 C.2     1  UNL1        0.2258
     13 N          63.5512   85.4039   14.5214 N.am    1  UNL1       -0.2768
     14 C          63.4683   85.6647   13.0465 C.3     1  UNL1        0.1091
     15 C          63.0852   84.5577   12.1095 C.3     1  UNL1        0.0741
     16 C          62.6820   83.2145   11.5775 C.3     1  UNL1        0.0189
     17 C          62.5566   82.2743   12.7394 C.3     1  UNL1        0.0189
     18 C          62.8821   83.0364   13.9897 C.3     1  UNL1        0.0741
     19 C          63.2510   84.0362   15.0592 C.3     1  UNL1        0.1091
     20 N          63.2089   84.4477   13.6003 N.3     1  UNL1       -0.2969
     21 H          64.1615   84.6740   13.8863 H       1  UNL1        0.1233
     22 C          64.9379   92.0921   11.5037 C.3     1  UNL1        0.0189
     23 C          64.2311   91.9618   10.1871 C.3     1  UNL1        0.0015
     24 C          65.3543   92.9439   10.3414 C.3     1  UNL1        0.0015
     25 S          63.2185   89.9137   12.6431 S.O2    1  UNL1        0.0634
     26 O          62.2647   91.0426   12.8994 O.2     1  UNL1       -0.1528
     27 O          63.8278   88.7815   12.2317 O.2     1  UNL1       -0.1528
     28 C          62.1911   89.2411   11.7816 C.ar    1  UNL1        0.1223
     29 C          62.6202   88.2676   10.7242 C.ar    1  UNL1        0.0208
     30 C          61.5929   87.5950    9.8627 C.ar    1  UNL1        0.0128
     31 C          60.1366   87.8959   10.0586 C.ar    1  UNL1        0.0578
     32 CL         59.1093   87.2233    9.1970 Cl      1  UNL1       -0.0822
     33 C          59.7074   88.8694   11.1159 C.ar    1  UNL1        0.0128
     34 C          60.7347   89.5421   11.9774 C.ar    1  UNL1        0.0208
@<TRIPOS>BOND
     1    11    12    2
     2    12    10    1
     3    10     7    1
     4     1     7    1
     5     1     2    1
     6     2     3    1
     7     3     4    1
     8     4     5    1
     9     5    22    1
    10    22    23    1
    11    23    24    1
    12     5     6    1
    13     6    25    1
    14    25    26    2
    15    25    27    2
    16    25    28    1
    17    28    29   ar
    18    29    30   ar
    19    30    31   ar
    20    31    32    1
    21    31    33   ar
    22    33    34   ar
    23     7     8    1
    24     8     9    1
    25    12    13   am
    26    13    14    1
    27    14    15    1
    28    15    16    1
    29    16    17    1
    30    17    18    1
    31    18    19    1
    32    18    20    1
    33     9     7    1
    34    19    13    1
    35     6     1    1
    36    34    28   ar
    37    20    15    1
    38    24    22    1
    39    20    21    1
@<TRIPOS>MOLECULE
*****
 34 39 0 0 0
SMALL
GASTEIGER

@<TRIPOS>ATOM
      1 C          62.8929   89.8617   12.4855 C.3     1  UNL1        0.1095
      2 C          62.6469   91.1921   11.8379 C.3     1  UNL1        0.1598
      3 O          62.1531   91.2576   10.4230 O.3     1  UNL1       -0.3508
      4 C          61.9052   89.9927    9.6559 C.3     1  UNL1        0.1598
      5 C          62.1511   88.6623   10.3035 C.3     1  UNL1        0.1091
      6 N          62.6450   88.5968   11.7184 N.3     1  UNL1       -0.1533
      7 C          63.3868   89.7961   13.9004 C.3     1  UNL1        0.0261
      8 C          62.1287   89.3678   14.5958 C.3     1  UNL1        0.0020
      9 C          63.3841   89.5898   15.3861 C.3     1  UNL1        0.0020
     10 C          64.8164   90.2018   13.6963 C.3     1  UNL1        0.0867
     11 O          65.2620   92.0917   15.4225 O.2     1  UNL1       -0.2749
     12 C          65.2492   91.6047   14.0038 C.2     1  UNL1        0.2258
     13 N          65.6691   92.5206   12.8927 N.am    1  UNL1       -0.2768
     14 C          65.6563   92.0336   11.4739 C.3     1  UNL1        0.1091
     15 C          66.0763   92.9496   10.3627 C.3     1  UNL1        0.0741
     16 C          66.5552   94.1579    9.6139 C.3     1  UNL1        0.0189
     17 C          66.8124   95.2489   10.6105 C.3     1  UNL1        0.0189
     18 C          66.4925   94.7151   11.9754 C.3     1  UNL1        0.0741
     19 C          66.1019   93.9235   13.2001 C.3     1  UNL1        0.1091
     20 N          66.0375   93.2939   11.8222 N.3     1  UNL1       -0.2969
     21 H          65.0860   93.1950   12.1760 H       1  UNL1        0.1233
     22 C          61.9032   87.3975    9.5363 C.3     1  UNL1        0.0189
     23 C          62.4234   86.1523    8.8813 C.3     1  UNL1        0.0015
     24 C          60.9538   86.4518    8.8623 C.3     1  UNL1        0.0015
     25 S          62.8910   87.2663   12.3660 S.O2    1  UNL1        0.0634
     26 O          61.4885   86.8475   12.0381 O.2     1  UNL1       -0.1528
     27 O          64.1692   87.3425   12.7934 O.2     1  UNL1       -0.1528
     28 C          63.1370   85.9359   13.0136 C.ar    1  UNL1        0.1223
     29 C          63.9577   85.8521   14.2663 C.ar    1  UNL1        0.0208
     30 C          64.2038   84.5217   14.9141 C.ar    1  UNL1        0.0128
     31 C          63.6291   83.2752   14.3090 C.ar    1  UNL1        0.0578
     32 CL         63.8752   81.9448   14.9567 Cl      1  UNL1       -0.0822
     33 C          62.8084   83.3590   13.0563 C.ar    1  UNL1        0.0128
     34 C          62.5623   84.6894   12.4086 C.ar    1  UNL1        0.0208
@<TRIPOS>BOND
     1    11    12    2
     2    12    10    1
     3    10     7    1
     4     1     7    1
     5     1     2    1
     6     2     3    1
     7     3     4    1
     8     4     5    1
     9     5    22    1
    10    22    23    1
    11    23    24    1
    12     5     6    1
    13     6    25    1
    14    25    26    2
    15    25    27    2
    16    25    28    1
    17    28    29   ar
    18    29    30   ar
    19    30    31   ar
    20    31    32    1
    21    31    33   ar
    22    33    34   ar
    23     7     8    1
    24     8     9    1
    25    12    13   am
    26    13    14    1
    27    14    15    1
    28    15    16    1
    29    16    17    1
    30    17    18    1
    31    18    19    1
    32    18    20    1
    33     9     7    1
    34    19    13    1
    35     6     1    1
    36    34    28   ar
    37    20    15    1
    38    24    22    1
    39    20    21    1
