@<TRIPOS>MOLECULE
*****
 28 31 0 0 0
SMALL
GASTEIGER

@<TRIPOS>ATOM
      1 C          61.7467   87.2633   10.8511 C.2     1  UNL1       -0.0059
      2 C          62.5716   86.2219   11.5474 C.ar    1  UNL1        0.0400
      3 C          63.0946   86.4800   12.9295 C.ar    1  UNL1        0.0400
      4 C          63.9194   85.4385   13.6258 C.ar    1  UNL1        0.1386
      5 C          64.2214   84.1389   12.9402 C.ar    1  UNL1        0.0363
      6 C          63.6984   83.8809   11.5583 C.ar    1  UNL1        0.0241
      7 C          64.0003   82.5813   10.8726 C.3     1  UNL1        0.0350
      8 C          62.8735   84.9224   10.8619 C.ar    1  UNL1        0.1888
      9 N          62.3505   84.6643    9.4798 N.2     1  UNL1       -0.0363
     10 C          61.5256   85.7057    8.7835 C.2     1  UNL1        0.3865
     11 N          60.8788   85.7343    7.4304 N.2     1  UNL1        0.0818
     12 N          60.1772   87.0515    7.2798 N.2     1  UNL1       -0.0421
     13 C          60.3903   87.8370    8.5398 C.2     1  UNL1        0.0990
     14 C          59.8627   89.2127    8.8210 C.3     1  UNL1        0.0523
     15 C          61.2237   87.0053    9.4691 C.3     1  UNL1        0.1736
     16 O          64.4424   85.6966   15.0078 O.3     1  UNL1       -0.4714
     17 C          63.5055   85.6822   16.1792 C.3     1  UNL1        0.2525
     18 C          61.4448   88.5629   11.5368 C.3     1  UNL1        0.1329
     19 C          64.5366   91.8314   11.6256 C.ar    1  UNL1        0.1387
     20 C          64.2378   91.0477   12.8691 C.ar    1  UNL1        0.0366
     21 C          63.2072   89.9581   12.8395 C.ar    1  UNL1        0.0002
     22 C          62.4754   89.6524   11.5664 C.ar    1  UNL1       -0.0044
     23 C          62.7742   90.4361   10.3227 C.ar    1  UNL1        0.0002
     24 C          63.8048   91.5255   10.3523 C.ar    1  UNL1        0.0366
     25 C          66.1853   93.3334   12.9581 C.3     1  UNL1        0.2525
     26 O          65.5672   92.9209   11.6551 O.3     1  UNL1       -0.4714
     27 C          60.1123   88.7729   12.1928 C.1     1  UNL1        0.0808
     28 N          58.7798   88.9828   12.8489 N.1     1  UNL1       -0.1952
@<TRIPOS>BOND
     1    25    26    1
     2    26    19    1
     3    19    20   ar
     4    20    21   ar
     5    21    22   ar
     6    22    18    1
     7    18    27    1
     8    27    28    3
     9    18     1    1
    10     1     2    2
    11     2     3   ar
    12     3     4   ar
    13     4    16    1
    14    16    17    1
    15     4     5   ar
    16     5     6   ar
    17     6     7    1
    18     6     8   ar
    19     8     9    2
    20     9    10    1
    21    10    11    2
    22    11    12    1
    23    12    13    2
    24    13    14    1
    25    13    15    1
    26    22    23   ar
    27    23    24   ar
    28    24    19   ar
    29    15     1    1
    30     8     2   ar
    31    15    10    1
@<TRIPOS>MOLECULE
*****
 28 31 0 0 0
SMALL
GASTEIGER

@<TRIPOS>ATOM
      1 C          60.0500   93.9587   -1.4275 C.2     1  UNL1       -0.0059
      2 C          60.4942   93.4850   -0.0753 C.ar    1  UNL1        0.0400
      3 C          59.4824   93.2515    1.0072 C.ar    1  UNL1        0.0400
      4 C          59.9266   92.7778    2.3593 C.ar    1  UNL1        0.1386
      5 C          61.3825   92.5374    2.6290 C.ar    1  UNL1        0.0363
      6 C          62.3942   92.7709    1.5464 C.ar    1  UNL1        0.0241
      7 C          63.8501   92.5306    1.8159 C.3     1  UNL1        0.0350
      8 C          61.9500   93.2447    0.1942 C.ar    1  UNL1        0.1888
      9 N          62.9618   93.4781   -0.8884 N.2     1  UNL1       -0.0363
     10 C          62.5176   93.9519   -2.2405 C.2     1  UNL1        0.3865
     11 N          63.2791   94.2659   -3.4940 N.2     1  UNL1        0.0818
     12 N          62.2939   94.7003   -4.5383 N.2     1  UNL1       -0.0421
     13 C          60.9234   94.6548   -3.9302 C.2     1  UNL1        0.0990
     14 C          59.6401   95.0095   -4.6210 C.3     1  UNL1        0.0523
     15 C          61.0617   94.1922   -2.5100 C.3     1  UNL1        0.1736
     16 O          58.9149   92.5443    3.4419 O.3     1  UNL1       -0.4714
     17 C          59.3328   91.9078    4.7344 C.3     1  UNL1        0.2525
     18 C          58.5941   94.1990   -1.6970 C.3     1  UNL1        0.1329
     19 C          56.0694   90.9349   -3.4918 C.ar    1  UNL1        0.1387
     20 C          57.3729   91.3121   -4.1310 C.ar    1  UNL1        0.0366
     21 C          58.2145   92.4002   -3.5327 C.ar    1  UNL1        0.0002
     22 C          57.7526   93.1110   -2.2953 C.ar    1  UNL1       -0.0044
     23 C          56.4490   92.7338   -1.6560 C.ar    1  UNL1        0.0002
     24 C          55.6075   91.6458   -2.2543 C.ar    1  UNL1        0.0366
     25 C          54.4956   90.0869   -5.3770 C.3     1  UNL1        0.2525
     26 O          55.2278   89.8469   -4.0901 O.3     1  UNL1       -0.4714
     27 C          57.9798   95.5275   -1.3682 C.1     1  UNL1        0.0808
     28 N          57.3654   96.8558   -1.0395 N.1     1  UNL1       -0.1952
@<TRIPOS>BOND
     1    25    26    1
     2    26    19    1
     3    19    20   ar
     4    20    21   ar
     5    21    22   ar
     6    22    18    1
     7    18    27    1
     8    27    28    3
     9    18     1    1
    10     1     2    2
    11     2     3   ar
    12     3     4   ar
    13     4    16    1
    14    16    17    1
    15     4     5   ar
    16     5     6   ar
    17     6     7    1
    18     6     8   ar
    19     8     9    2
    20     9    10    1
    21    10    11    2
    22    11    12    1
    23    12    13    2
    24    13    14    1
    25    13    15    1
    26    22    23   ar
    27    23    24   ar
    28    24    19   ar
    29    15     1    1
    30     8     2   ar
    31    15    10    1
@<TRIPOS>MOLECULE
*****
 28 31 0 0 0
SMALL
GASTEIGER

@<TRIPOS>ATOM
      1 C          61.7332   87.4919   10.9176 C.2     1  UNL1       -0.0059
      2 C          61.1055   87.3163    9.5667 C.ar    1  UNL1        0.0400
      3 C          60.2777   88.4188    8.9754 C.ar    1  UNL1        0.0400
      4 C          59.6500   88.2433    7.6244 C.ar    1  UNL1        0.1386
      5 C          59.8499   86.9654    6.8647 C.ar    1  UNL1        0.0363
      6 C          60.6777   85.8631    7.4560 C.ar    1  UNL1        0.0241
      7 C          60.8777   84.5852    6.6963 C.3     1  UNL1        0.0350
      8 C          61.3055   86.0386    8.8070 C.ar    1  UNL1        0.1888
      9 N          62.1332   84.9361    9.3983 N.2     1  UNL1       -0.0363
     10 C          62.7610   85.1117   10.7493 C.2     1  UNL1        0.3865
     11 N          63.6220   84.2078   11.5810 N.2     1  UNL1        0.0818
     12 N          63.9541   84.9271   12.8547 N.2     1  UNL1       -0.0421
     13 C          63.2984   86.2755   12.8102 C.2     1  UNL1        0.0990
     14 C          63.3679   87.3254   13.8792 C.3     1  UNL1        0.0523
     15 C          62.5610   86.3895   11.5089 C.3     1  UNL1        0.1736
     16 O          58.8222   89.3456    7.0331 O.3     1  UNL1       -0.4714
     17 C          59.3446   90.1338    5.8686 C.3     1  UNL1        0.2525
     18 C          61.5332   88.7697   11.6773 C.3     1  UNL1        0.1329
     19 C          64.6598   92.0016   11.5068 C.ar    1  UNL1        0.1387
     20 C          64.3747   91.3016   12.8023 C.ar    1  UNL1        0.0366
     21 C          63.3325   90.2242   12.8592 C.ar    1  UNL1        0.0002
     22 C          62.5754   89.8470   11.6204 C.ar    1  UNL1       -0.0044
     23 C          62.8605   90.5471   10.3248 C.ar    1  UNL1        0.0002
     24 C          63.9027   91.6244   10.2680 C.ar    1  UNL1        0.0366
     25 C          66.3333   93.5793   12.7153 C.3     1  UNL1        0.2525
     26 O          65.7021   93.0789   11.4499 O.3     1  UNL1       -0.4714
     27 C          60.2909   88.9703   12.4938 C.1     1  UNL1        0.0808
     28 N          59.0487   89.1708   13.3103 N.1     1  UNL1       -0.1952
@<TRIPOS>BOND
     1    25    26    1
     2    26    19    1
     3    19    20   ar
     4    20    21   ar
     5    21    22   ar
     6    22    18    1
     7    18    27    1
     8    27    28    3
     9    18     1    1
    10     1     2    2
    11     2     3   ar
    12     3     4   ar
    13     4    16    1
    14    16    17    1
    15     4     5   ar
    16     5     6   ar
    17     6     7    1
    18     6     8   ar
    19     8     9    2
    20     9    10    1
    21    10    11    2
    22    11    12    1
    23    12    13    2
    24    13    14    1
    25    13    15    1
    26    22    23   ar
    27    23    24   ar
    28    24    19   ar
    29    15     1    1
    30     8     2   ar
    31    15    10    1
@<TRIPOS>MOLECULE
*****
 28 31 0 0 0
SMALL
GASTEIGER

@<TRIPOS>ATOM
      1 C          63.0234   84.1500   12.7614 C.2     1  UNL1       -0.0059
      2 C          63.2842   85.2863   13.7052 C.ar    1  UNL1        0.0400
      3 C          63.6796   86.6305   13.1695 C.ar    1  UNL1        0.0400
      4 C          63.9403   87.7669   14.1133 C.ar    1  UNL1        0.1386
      5 C          63.8058   87.5591   15.5928 C.ar    1  UNL1        0.0363
      6 C          63.4104   86.2149   16.1284 C.ar    1  UNL1        0.0241
      7 C          63.2758   86.0071   17.6078 C.3     1  UNL1        0.0350
      8 C          63.1496   85.0785   15.1846 C.ar    1  UNL1        0.1888
      9 N          62.7542   83.7343   15.7203 N.2     1  UNL1       -0.0363
     10 C          62.4935   82.5980   14.7765 C.2     1  UNL1        0.3865
     11 N          62.0916   81.1718   15.0096 N.2     1  UNL1        0.0818
     12 N          61.9778   80.4982   13.6742 N.2     1  UNL1       -0.0421
     13 C          62.3094   81.5081   12.6158 C.2     1  UNL1        0.0990
     14 C          62.3203   81.2631   11.1360 C.3     1  UNL1        0.0523
     15 C          62.6281   82.8059   13.2971 C.3     1  UNL1        0.1736
     16 O          64.3357   89.1110   13.5777 O.3     1  UNL1       -0.4714
     17 C          63.3596   89.9127   12.7685 C.3     1  UNL1        0.2525
     18 C          63.1580   84.3579   11.2820 C.3     1  UNL1        0.1329
     19 C          60.7687   87.5753    9.2353 C.ar    1  UNL1        0.1387
     20 C          60.5494   87.2898   10.6914 C.ar    1  UNL1        0.0366
     21 C          61.3459   86.2173   11.3737 C.ar    1  UNL1        0.0002
     22 C          62.3616   85.4303   10.5998 C.ar    1  UNL1       -0.0044
     23 C          62.5809   85.7157    9.1435 C.ar    1  UNL1        0.0002
     24 C          61.7844   86.7882    8.4613 C.ar    1  UNL1        0.0366
     25 C          59.1164   88.3078    7.3689 C.3     1  UNL1        0.2525
     26 O          59.9722   88.6478    8.5530 O.3     1  UNL1       -0.4714
     27 C          64.0892   83.4932   10.4848 C.1     1  UNL1        0.0808
     28 N          65.0202   82.6285    9.6877 N.1     1  UNL1       -0.1952
@<TRIPOS>BOND
     1    25    26    1
     2    26    19    1
     3    19    20   ar
     4    20    21   ar
     5    21    22   ar
     6    22    18    1
     7    18    27    1
     8    27    28    3
     9    18     1    1
    10     1     2    2
    11     2     3   ar
    12     3     4   ar
    13     4    16    1
    14    16    17    1
    15     4     5   ar
    16     5     6   ar
    17     6     7    1
    18     6     8   ar
    19     8     9    2
    20     9    10    1
    21    10    11    2
    22    11    12    1
    23    12    13    2
    24    13    14    1
    25    13    15    1
    26    22    23   ar
    27    23    24   ar
    28    24    19   ar
    29    15     1    1
    30     8     2   ar
    31    15    10    1
@<TRIPOS>MOLECULE
*****
 28 31 0 0 0
SMALL
GASTEIGER

@<TRIPOS>ATOM
      1 C          62.3938   87.3759   11.9242 C.2     1  UNL1       -0.0059
      2 C          62.8392   86.1024   12.5799 C.ar    1  UNL1        0.0400
      3 C          62.2496   84.7917   12.1504 C.ar    1  UNL1        0.0400
      4 C          62.6950   83.5182   12.8061 C.ar    1  UNL1        0.1386
      5 C          63.7300   83.5555   13.8913 C.ar    1  UNL1        0.0363
      6 C          64.3196   84.8662   14.3207 C.ar    1  UNL1        0.0241
      7 C          65.3546   84.9035   15.4058 C.3     1  UNL1        0.0350
      8 C          63.8741   86.1397   13.6649 C.ar    1  UNL1        0.1888
      9 N          64.4638   87.4505   14.0944 N.2     1  UNL1       -0.0363
     10 C          64.0183   88.7239   13.4387 C.2     1  UNL1        0.3865
     11 N          64.4173   90.1544   13.6498 N.2     1  UNL1        0.0818
     12 N          63.6289   91.0011   12.6951 N.2     1  UNL1       -0.0421
     13 C          62.7427   90.0940   11.8940 C.2     1  UNL1        0.0990
     14 C          61.7841   90.5196   10.8217 C.3     1  UNL1        0.0523
     15 C          62.9834   88.6866   12.3536 C.3     1  UNL1        0.1736
     16 O          62.1055   82.2075   12.3767 O.3     1  UNL1       -0.4714
     17 C          62.0124   81.0716   13.3520 C.3     1  UNL1        0.2525
     18 C          61.3588   87.3385   10.8391 C.3     1  UNL1        0.1329
     19 C          62.1816   85.1039    7.0208 C.ar    1  UNL1        0.1387
     20 C          60.8098   85.6468    7.2913 C.ar    1  UNL1        0.0366
     21 C          60.5355   86.3917    8.5641 C.ar    1  UNL1        0.0002
     22 C          61.6331   86.5937    9.5663 C.ar    1  UNL1       -0.0044
     23 C          63.0050   86.0508    9.2958 C.ar    1  UNL1        0.0002
     24 C          63.2793   85.3059    8.0231 C.ar    1  UNL1        0.0366
     25 C          61.3187   83.7924    4.9507 C.3     1  UNL1        0.2525
     26 O          62.4559   84.3590    5.7480 O.3     1  UNL1       -0.4714
     27 C          60.0495   88.0462   11.0268 C.1     1  UNL1        0.0808
     28 N          58.7403   88.7537   11.2145 N.1     1  UNL1       -0.1952
@<TRIPOS>BOND
     1    25    26    1
     2    26    19    1
     3    19    20   ar
     4    20    21   ar
     5    21    22   ar
     6    22    18    1
     7    18    27    1
     8    27    28    3
     9    18     1    1
    10     1     2    2
    11     2     3   ar
    12     3     4   ar
    13     4    16    1
    14    16    17    1
    15     4     5   ar
    16     5     6   ar
    17     6     7    1
    18     6     8   ar
    19     8     9    2
    20     9    10    1
    21    10    11    2
    22    11    12    1
    23    12    13    2
    24    13    14    1
    25    13    15    1
    26    22    23   ar
    27    23    24   ar
    28    24    19   ar
    29    15     1    1
    30     8     2   ar
    31    15    10    1
@<TRIPOS>MOLECULE
*****
 28 31 0 0 0
SMALL
GASTEIGER

@<TRIPOS>ATOM
      1 C          62.9017   85.6034   11.8800 C.2     1  UNL1       -0.0059
      2 C          62.0444   86.1928   10.7994 C.ar    1  UNL1        0.0400
      3 C          61.2434   87.4319   11.0698 C.ar    1  UNL1        0.0400
      4 C          60.3860   88.0213    9.9893 C.ar    1  UNL1        0.1386
      5 C          60.3297   87.3717    8.6384 C.ar    1  UNL1        0.0363
      6 C          61.1307   86.1327    8.3680 C.ar    1  UNL1        0.0241
      7 C          61.0745   85.4831    7.0172 C.3     1  UNL1        0.0350
      8 C          61.9881   85.5432    9.4486 C.ar    1  UNL1        0.1888
      9 N          62.7892   84.3041    9.1782 N.2     1  UNL1       -0.0363
     10 C          63.6465   83.7147   10.2588 C.2     1  UNL1        0.3865
     11 N          64.5397   82.5100   10.2862 N.2     1  UNL1        0.0818
     12 N          65.1480   82.4150   11.6540 N.2     1  UNL1       -0.0421
     13 C          64.6308   83.5611   12.4720 C.2     1  UNL1        0.0990
     14 C          64.9802   83.8527   13.9012 C.3     1  UNL1        0.0523
     15 C          63.7028   84.3644   11.6096 C.3     1  UNL1        0.1736
     16 O          59.5850   89.2604   10.2596 O.3     1  UNL1       -0.4714
     17 C          59.7921   90.0243   11.5339 C.3     1  UNL1        0.2525
     18 C          62.9580   86.2530   13.2308 C.3     1  UNL1        0.1329
     19 C          64.5023   90.4597   13.6419 C.ar    1  UNL1        0.1387
     20 C          63.6943   90.0716   12.4393 C.ar    1  UNL1        0.0366
     21 C          63.1795   88.6693   12.3022 C.ar    1  UNL1        0.0002
     22 C          63.4728   87.6552   13.3679 C.ar    1  UNL1       -0.0044
     23 C          64.2809   88.0433   14.5706 C.ar    1  UNL1        0.0002
     24 C          64.7956   89.4455   14.7076 C.ar    1  UNL1        0.0366
     25 C          65.5240   92.5960   12.5731 C.3     1  UNL1        0.2525
     26 O          65.0172   91.8619   13.7791 O.3     1  UNL1       -0.4714
     27 C          62.4995   85.5004   14.4447 C.1     1  UNL1        0.0808
     28 N          62.0410   84.7478   15.6586 N.1     1  UNL1       -0.1952
@<TRIPOS>BOND
     1    25    26    1
     2    26    19    1
     3    19    20   ar
     4    20    21   ar
     5    21    22   ar
     6    22    18    1
     7    18    27    1
     8    27    28    3
     9    18     1    1
    10     1     2    2
    11     2     3   ar
    12     3     4   ar
    13     4    16    1
    14    16    17    1
    15     4     5   ar
    16     5     6   ar
    17     6     7    1
    18     6     8   ar
    19     8     9    2
    20     9    10    1
    21    10    11    2
    22    11    12    1
    23    12    13    2
    24    13    14    1
    25    13    15    1
    26    22    23   ar
    27    23    24   ar
    28    24    19   ar
    29    15     1    1
    30     8     2   ar
    31    15    10    1
@<TRIPOS>MOLECULE
*****
 28 31 0 0 0
SMALL
GASTEIGER

@<TRIPOS>ATOM
      1 C          62.7824   87.7425   12.3253 C.2     1  UNL1       -0.0059
      2 C          62.6139   86.7437   11.2189 C.ar    1  UNL1        0.0400
      3 C          61.9038   87.1353    9.9569 C.ar    1  UNL1        0.0400
      4 C          61.7353   86.1365    8.8505 C.ar    1  UNL1        0.1386
      5 C          62.2769   84.7464    9.0059 C.ar    1  UNL1        0.0363
      6 C          62.9870   84.3549   10.2679 C.ar    1  UNL1        0.0241
      7 C          63.5286   82.9648   10.4234 C.3     1  UNL1        0.0350
      8 C          63.1555   85.3537   11.3744 C.ar    1  UNL1        0.1888
      9 N          63.8656   84.9622   12.6364 N.2     1  UNL1       -0.0363
     10 C          64.0341   85.9609   13.7428 C.2     1  UNL1        0.3865
     11 N          64.6839   85.8647   15.0913 N.2     1  UNL1        0.0818
     12 N          64.5439   87.1955   15.7692 N.2     1  UNL1       -0.0421
     13 C          63.8076   88.1140   14.8396 C.2     1  UNL1        0.0990
     14 C          63.4493   89.5445   15.1143 C.3     1  UNL1        0.0523
     15 C          63.4925   87.3510   13.5872 C.3     1  UNL1        0.1736
     16 O          61.0251   86.5280    7.5885 O.3     1  UNL1       -0.4714
     17 C          59.5401   86.7396    7.5983 C.3     1  UNL1        0.2525
     18 C          62.2408   89.1326   12.1698 C.3     1  UNL1        0.1329
     19 C          64.9698   92.4833   10.9148 C.ar    1  UNL1        0.1387
     20 C          64.0031   91.8948    9.9305 C.ar    1  UNL1        0.0366
     21 C          63.0934   90.7778   10.3487 C.ar    1  UNL1        0.0002
     22 C          63.1505   90.2495   11.7514 C.ar    1  UNL1       -0.0044
     23 C          64.1172   90.8380   12.7359 C.ar    1  UNL1        0.0002
     24 C          65.0269   91.9549   12.3176 C.ar    1  UNL1        0.0366
     25 C          66.1184   94.7584   11.4193 C.3     1  UNL1        0.2525
     26 O          65.8795   93.6003   10.4965 O.3     1  UNL1       -0.4714
     27 C          60.7894   89.4058   12.4326 C.1     1  UNL1        0.0808
     28 N          59.3381   89.6790   12.6953 N.1     1  UNL1       -0.1952
@<TRIPOS>BOND
     1    25    26    1
     2    26    19    1
     3    19    20   ar
     4    20    21   ar
     5    21    22   ar
     6    22    18    1
     7    18    27    1
     8    27    28    3
     9    18     1    1
    10     1     2    2
    11     2     3   ar
    12     3     4   ar
    13     4    16    1
    14    16    17    1
    15     4     5   ar
    16     5     6   ar
    17     6     7    1
    18     6     8   ar
    19     8     9    2
    20     9    10    1
    21    10    11    2
    22    11    12    1
    23    12    13    2
    24    13    14    1
    25    13    15    1
    26    22    23   ar
    27    23    24   ar
    28    24    19   ar
    29    15     1    1
    30     8     2   ar
    31    15    10    1
