@<TRIPOS>MOLECULE
*****
 29 32 0 0 0
SMALL
GASTEIGER

@<TRIPOS>ATOM
      1 N          63.4097   85.1368   13.3940 N.pl3   1  UNL1       -0.3018
      2 C          64.2381   85.5363   14.5790 C.3     1  UNL1        0.1124
      3 C          64.5527   86.9828   14.8207 C.3     1  UNL1        0.1149
      4 N          64.0388   88.0300   13.8775 N.pl3   1  UNL1       -0.2777
      5 C          63.2104   87.6304   12.6926 C.3     1  UNL1        0.0953
      6 C          62.6965   88.6774   11.7494 C.3     1  UNL1        0.0233
      7 C          62.8958   86.1838   12.4508 C.3     1  UNL1        0.1107
      8 C          64.3534   89.4765   14.1192 C.ar    1  UNL1        0.2035
      9 N          65.0930   90.2669   13.0808 N.ar    1  UNL1       -0.2133
     10 C          65.4076   91.7135   13.3226 C.ar    1  UNL1        0.1065
     11 C          64.9826   92.3697   14.6028 C.ar    1  UNL1        0.0815
     12 C          64.2430   91.5793   15.6412 C.ar    1  UNL1        0.2646
     13 O          63.8180   92.2354   16.9213 O.2     1  UNL1       -0.2668
     14 N          63.9284   90.1326   15.3994 N.ar    1  UNL1       -0.2667
     15 C          63.1889   89.3422   16.4378 C.3     1  UNL1        0.1363
     16 C          66.1471   92.5039   12.2842 C.ar    1  UNL1        0.1024
     17 C          67.2422   91.8574   11.4886 C.ar    1  UNL1        0.0414
     18 C          67.9817   92.6479   10.4502 C.ar    1  UNL1        0.1023
     19 N          67.6262   94.0847   10.2073 N.ar    1  UNL1       -0.2224
     20 C          66.5311   94.7312   11.0029 C.ar    1  UNL1        0.1989
     21 N          65.7916   93.9408   12.0413 N.ar    1  UNL1       -0.2224
     22 C          63.4884   83.0433   11.8574 C.ar    1  UNL1        0.1519
     23 C          63.1738   81.5967   11.6158 C.ar    1  UNL1        0.0382
     24 C          62.4659   80.7970   12.6690 C.ar    1  UNL1        0.0032
     25 C          62.0726   81.4439   13.9639 C.ar    1  UNL1        0.0015
     26 C          62.3872   82.8904   14.2056 C.ar    1  UNL1        0.0176
     27 C          63.0951   83.6901   13.1523 C.ar    1  UNL1        0.0824
     28 C          63.5126   84.1411    9.5028 C.3     1  UNL1        0.2525
     29 O          64.1963   83.8430   10.8042 O.3     1  UNL1       -0.4702
@<TRIPOS>BOND
     1    28    29    1
     2    29    22    1
     3    22    23   ar
     4    23    24   ar
     5    24    25   ar
     6    25    26   ar
     7    26    27   ar
     8    27     1    1
     9     1     2    1
    10     2     3    1
    11     3     4    1
    12     4     8    1
    13     8     9   ar
    14     9    10   ar
    15    10    16    1
    16    16    17   ar
    17    17    18   ar
    18    18    19   ar
    19    19    20   ar
    20    20    21   ar
    21    10    11   ar
    22    11    12   ar
    23    12    13    2
    24    12    14   ar
    25    14    15    1
    26     4     5    1
    27     5     6    1
    28     5     7    1
    29    27    22   ar
    30     7     1    1
    31    14     8   ar
    32    21    16   ar
@<TRIPOS>MOLECULE
*****
 29 32 0 0 0
SMALL
GASTEIGER

@<TRIPOS>ATOM
      1 N          63.4937   85.3350   12.9735 N.pl3   1  UNL1       -0.3018
      2 C          64.3489   85.6764   14.1576 C.3     1  UNL1        0.1124
      3 C          64.6253   87.1118   14.4943 C.3     1  UNL1        0.1149
      4 N          64.0463   88.2058   13.6469 N.pl3   1  UNL1       -0.2777
      5 C          63.1911   87.8644   12.4628 C.3     1  UNL1        0.0953
      6 C          62.6121   88.9584   11.6154 C.3     1  UNL1        0.0233
      7 C          62.9148   86.4290   12.1261 C.3     1  UNL1        0.1107
      8 C          64.3226   89.6411   13.9836 C.ar    1  UNL1        0.2035
      9 N          64.9839   90.5340   12.9759 N.ar    1  UNL1       -0.2133
     10 C          65.2602   91.9694   13.3126 C.ar    1  UNL1        0.1065
     11 C          64.8752   92.5119   14.6570 C.ar    1  UNL1        0.0815
     12 C          64.2139   91.6190   15.6648 C.ar    1  UNL1        0.2646
     13 O          63.8289   92.1615   17.0092 O.2     1  UNL1       -0.2668
     14 N          63.9376   90.1836   15.3280 N.ar    1  UNL1       -0.2667
     15 C          63.2763   89.2907   16.3357 C.3     1  UNL1        0.1363
     16 C          65.9215   92.8622   12.3049 C.ar    1  UNL1        0.1024
     17 C          66.6068   92.2670   11.1108 C.ar    1  UNL1        0.0414
     18 C          67.2681   93.1598   10.1031 C.ar    1  UNL1        0.1023
     19 N          67.2441   94.6480   10.2895 N.ar    1  UNL1       -0.2224
     20 C          66.5587   95.2433   11.4836 C.ar    1  UNL1        0.1989
     21 N          65.8974   94.3505   12.4913 N.ar    1  UNL1       -0.2224
     22 C          62.3876   83.0588   13.5611 C.ar    1  UNL1        0.1519
     23 C          62.1113   81.6234   13.2244 C.ar    1  UNL1        0.0382
     24 C          62.6649   81.0289   11.9634 C.ar    1  UNL1        0.0032
     25 C          63.4947   81.8697   11.0391 C.ar    1  UNL1        0.0015
     26 C          63.7710   83.3051   11.3758 C.ar    1  UNL1        0.0176
     27 C          63.2174   83.8996   12.6368 C.ar    1  UNL1        0.0824
     28 C          62.7088   83.7926   16.0326 C.3     1  UNL1        0.2525
     29 O          61.8340   83.6533   14.8221 O.3     1  UNL1       -0.4702
@<TRIPOS>BOND
     1    28    29    1
     2    29    22    1
     3    22    23   ar
     4    23    24   ar
     5    24    25   ar
     6    25    26   ar
     7    26    27   ar
     8    27     1    1
     9     1     2    1
    10     2     3    1
    11     3     4    1
    12     4     8    1
    13     8     9   ar
    14     9    10   ar
    15    10    16    1
    16    16    17   ar
    17    17    18   ar
    18    18    19   ar
    19    19    20   ar
    20    20    21   ar
    21    10    11   ar
    22    11    12   ar
    23    12    13    2
    24    12    14   ar
    25    14    15    1
    26     4     5    1
    27     5     6    1
    28     5     7    1
    29    27    22   ar
    30     7     1    1
    31    14     8   ar
    32    21    16   ar
@<TRIPOS>MOLECULE
*****
 29 32 0 0 0
SMALL
GASTEIGER

@<TRIPOS>ATOM
      1 N          62.7811   84.1824   12.9790 N.pl3   1  UNL1       -0.3018
      2 C          62.2448   84.9102   11.7820 C.3     1  UNL1        0.1124
      3 C          62.4887   86.3822   11.6279 C.3     1  UNL1        0.1149
      4 N          63.2688   87.1264   12.6708 N.pl3   1  UNL1       -0.2777
      5 C          63.8051   86.3986   13.8677 C.3     1  UNL1        0.0953
      6 C          64.5852   87.1428   14.9106 C.3     1  UNL1        0.0233
      7 C          63.5612   84.9266   14.0218 C.3     1  UNL1        0.1107
      8 C          63.5127   88.5984   12.5167 C.ar    1  UNL1        0.2035
      9 N          64.3029   89.3403   13.5535 N.ar    1  UNL1       -0.2133
     10 C          64.5467   90.8123   13.3994 C.ar    1  UNL1        0.1065
     11 C          64.0004   91.5424   12.2084 C.ar    1  UNL1        0.0815
     12 C          63.2102   90.8005   11.1715 C.ar    1  UNL1        0.2646
     13 O          62.6638   91.5305    9.9805 O.2     1  UNL1       -0.2668
     14 N          62.9663   89.3284   11.3257 N.ar    1  UNL1       -0.2667
     15 C          62.1761   88.5865   10.2888 C.3     1  UNL1        0.1363
     16 C          65.3369   91.5542   14.4363 C.ar    1  UNL1        0.1024
     17 C          66.7652   91.9252   14.1673 C.ar    1  UNL1        0.0414
     18 C          67.5554   92.6672   15.2042 C.ar    1  UNL1        0.1023
     19 N          66.9174   93.0381   16.5100 N.ar    1  UNL1       -0.2224
     20 C          65.4890   92.6671   16.7790 C.ar    1  UNL1        0.1989
     21 N          64.6988   91.9252   15.7422 N.ar    1  UNL1       -0.2224
     22 C          63.3859   81.7270   12.3831 C.ar    1  UNL1        0.1519
     23 C          63.1420   80.2550   12.5372 C.ar    1  UNL1        0.0382
     24 C          62.0493   79.7665   13.4413 C.ar    1  UNL1        0.0032
     25 C          61.2006   80.7499   14.1913 C.ar    1  UNL1        0.0015
     26 C          61.4445   82.2218   14.0372 C.ar    1  UNL1        0.0176
     27 C          62.5372   82.7104   13.1331 C.ar    1  UNL1        0.0824
     28 C          64.1695   82.5769   10.0563 C.3     1  UNL1        0.2525
     29 O          64.4785   82.2156   11.4789 O.3     1  UNL1       -0.4702
@<TRIPOS>BOND
     1    28    29    1
     2    29    22    1
     3    22    23   ar
     4    23    24   ar
     5    24    25   ar
     6    25    26   ar
     7    26    27   ar
     8    27     1    1
     9     1     2    1
    10     2     3    1
    11     3     4    1
    12     4     8    1
    13     8     9   ar
    14     9    10   ar
    15    10    16    1
    16    16    17   ar
    17    17    18   ar
    18    18    19   ar
    19    19    20   ar
    20    20    21   ar
    21    10    11   ar
    22    11    12   ar
    23    12    13    2
    24    12    14   ar
    25    14    15    1
    26     4     5    1
    27     5     6    1
    28     5     7    1
    29    27    22   ar
    30     7     1    1
    31    14     8   ar
    32    21    16   ar
@<TRIPOS>MOLECULE
*****
 29 32 0 0 0
SMALL
GASTEIGER

@<TRIPOS>ATOM
      1 N          63.1864   82.6790   12.3109 N.pl3   1  UNL1       -0.3018
      2 C          63.9692   82.8292   13.5816 C.3     1  UNL1        0.1124
      3 C          64.0989   84.1767   14.2277 C.3     1  UNL1        0.1149
      4 N          63.4459   85.3740   13.6031 N.pl3   1  UNL1       -0.2777
      5 C          62.6631   85.2237   12.3325 C.3     1  UNL1        0.0953
      6 C          62.0100   86.4209   11.7079 C.3     1  UNL1        0.0233
      7 C          62.5333   83.8762   11.6864 C.3     1  UNL1        0.1107
      8 C          63.5756   86.7214   14.2492 C.ar    1  UNL1        0.2035
      9 N          63.9854   87.9095   13.4304 N.ar    1  UNL1       -0.2133
     10 C          64.1152   89.2569   14.0765 C.ar    1  UNL1        0.1065
     11 C          63.8351   89.4164   15.5415 C.ar    1  UNL1        0.0815
     12 C          63.4252   88.2283   16.3604 C.ar    1  UNL1        0.2646
     13 O          63.1451   88.3877   17.8253 O.2     1  UNL1       -0.2668
     14 N          63.2955   86.8808   15.7142 N.ar    1  UNL1       -0.2667
     15 C          62.8857   85.6927   16.5330 C.3     1  UNL1        0.1363
     16 C          64.5250   90.4450   13.2577 C.ar    1  UNL1        0.1024
     17 C          63.8029   90.7616   11.9816 C.ar    1  UNL1        0.0414
     18 C          64.2128   91.9496   11.1628 C.ar    1  UNL1        0.1023
     19 N          65.3447   92.8212   11.6200 N.ar    1  UNL1       -0.2224
     20 C          66.0669   92.5047   12.8961 C.ar    1  UNL1        0.1989
     21 N          65.6570   91.3166   13.7149 N.ar    1  UNL1       -0.2224
     22 C          62.5895   80.1554   12.4702 C.ar    1  UNL1        0.1519
     23 C          62.4598   78.8079   11.8241 C.ar    1  UNL1        0.0382
     24 C          62.7973   78.6365   10.3726 C.ar    1  UNL1        0.0032
     25 C          63.2644   79.8126    9.5673 C.ar    1  UNL1        0.0015
     26 C          63.3941   81.1600   10.2134 C.ar    1  UNL1        0.0176
     27 C          63.0567   81.3314   11.6648 C.ar    1  UNL1        0.0824
     28 C          60.9020   80.8434   14.3218 C.3     1  UNL1        0.2525
     29 O          62.2521   80.3268   13.9217 O.3     1  UNL1       -0.4702
@<TRIPOS>BOND
     1    28    29    1
     2    29    22    1
     3    22    23   ar
     4    23    24   ar
     5    24    25   ar
     6    25    26   ar
     7    26    27   ar
     8    27     1    1
     9     1     2    1
    10     2     3    1
    11     3     4    1
    12     4     8    1
    13     8     9   ar
    14     9    10   ar
    15    10    16    1
    16    16    17   ar
    17    17    18   ar
    18    18    19   ar
    19    19    20   ar
    20    20    21   ar
    21    10    11   ar
    22    11    12   ar
    23    12    13    2
    24    12    14   ar
    25    14    15    1
    26     4     5    1
    27     5     6    1
    28     5     7    1
    29    27    22   ar
    30     7     1    1
    31    14     8   ar
    32    21    16   ar
@<TRIPOS>MOLECULE
*****
 29 32 0 0 0
SMALL
GASTEIGER

@<TRIPOS>ATOM
      1 N          62.5615   83.8184   11.6552 N.pl3   1  UNL1       -0.3018
      2 C          62.6255   84.6310   12.9144 C.3     1  UNL1        0.1124
      3 C          62.5224   86.1259   12.8483 C.3     1  UNL1        0.1149
      4 N          62.3552   86.8084   11.5230 N.pl3   1  UNL1       -0.2777
      5 C          62.2912   85.9958   10.2638 C.3     1  UNL1        0.0953
      6 C          62.1241   86.6781    8.9385 C.3     1  UNL1        0.0233
      7 C          62.3944   84.5007   10.3299 C.3     1  UNL1        0.1107
      8 C          62.2521   88.3033   11.4569 C.ar    1  UNL1        0.2035
      9 N          63.4568   89.1514   11.7387 N.ar    1  UNL1       -0.2133
     10 C          63.3536   90.6464   11.6727 C.ar    1  UNL1        0.1065
     11 C          62.0457   91.2933   11.3247 C.ar    1  UNL1        0.0815
     12 C          60.8410   90.4452   11.0429 C.ar    1  UNL1        0.2646
     13 O          59.5332   91.0921   10.6950 O.2     1  UNL1       -0.2668
     14 N          60.9442   88.9502   11.1090 N.ar    1  UNL1       -0.2667
     15 C          59.7395   88.1021   10.8272 C.3     1  UNL1        0.1363
     16 C          64.5583   91.4945   11.9545 C.ar    1  UNL1        0.1024
     17 C          65.1611   92.3276   10.8625 C.ar    1  UNL1        0.0414
     18 C          66.3658   93.1757   11.1443 C.ar    1  UNL1        0.1023
     19 N          66.9677   93.1907   12.5181 N.ar    1  UNL1       -0.2224
     20 C          66.3650   92.3575   13.6102 C.ar    1  UNL1        0.1989
     21 N          65.1603   91.5094   13.3284 N.ar    1  UNL1       -0.2224
     22 C          62.3489   81.6056   13.0000 C.ar    1  UNL1        0.1519
     23 C          62.4521   80.1106   13.0661 C.ar    1  UNL1        0.0382
     24 C          62.8710   79.3334   11.8535 C.ar    1  UNL1        0.0032
     25 C          63.1867   80.0511   10.5748 C.ar    1  UNL1        0.0015
     26 C          63.0836   81.5461   10.5087 C.ar    1  UNL1        0.0176
     27 C          62.6647   82.3233   11.7213 C.ar    1  UNL1        0.0824
     28 C          62.9600   82.8432   15.2011 C.3     1  UNL1        0.2525
     29 O          61.9300   82.3828   14.2126 O.3     1  UNL1       -0.4702
@<TRIPOS>BOND
     1    28    29    1
     2    29    22    1
     3    22    23   ar
     4    23    24   ar
     5    24    25   ar
     6    25    26   ar
     7    26    27   ar
     8    27     1    1
     9     1     2    1
    10     2     3    1
    11     3     4    1
    12     4     8    1
    13     8     9   ar
    14     9    10   ar
    15    10    16    1
    16    16    17   ar
    17    17    18   ar
    18    18    19   ar
    19    19    20   ar
    20    20    21   ar
    21    10    11   ar
    22    11    12   ar
    23    12    13    2
    24    12    14   ar
    25    14    15    1
    26     4     5    1
    27     5     6    1
    28     5     7    1
    29    27    22   ar
    30     7     1    1
    31    14     8   ar
    32    21    16   ar
@<TRIPOS>MOLECULE
*****
 29 32 0 0 0
SMALL
GASTEIGER

@<TRIPOS>ATOM
      1 N          60.5634   93.9192   -0.5739 N.pl3   1  UNL1       -0.3018
      2 C          60.3306   95.3904   -0.7513 C.3     1  UNL1        0.1124
      3 C          59.3751   95.8775   -1.7998 C.3     1  UNL1        0.1149
      4 N          58.6522   94.8934   -2.6711 N.pl3   1  UNL1       -0.2777
      5 C          58.8850   93.4222   -2.4938 C.3     1  UNL1        0.0953
      6 C          58.1622   92.4381   -3.3650 C.3     1  UNL1        0.0233
      7 C          59.8406   92.9351   -1.4451 C.3     1  UNL1        0.1107
      8 C          57.6966   95.3805   -3.7197 C.ar    1  UNL1        0.2035
      9 N          56.2290   95.4573   -3.4194 N.ar    1  UNL1       -0.2133
     10 C          55.2734   95.9444   -4.4680 C.ar    1  UNL1        0.1065
     11 C          55.7854   96.3547   -5.8169 C.ar    1  UNL1        0.0815
     12 C          57.2531   96.2779   -6.1172 C.ar    1  UNL1        0.2646
     13 O          57.7651   96.6881   -7.4661 O.2     1  UNL1       -0.2668
     14 N          58.2087   95.7907   -5.0685 N.ar    1  UNL1       -0.2667
     15 C          59.6763   95.7139   -5.3688 C.3     1  UNL1        0.1363
     16 C          53.8058   96.0212   -4.1678 C.ar    1  UNL1        0.1024
     17 C          53.3233   95.9127   -2.7516 C.ar    1  UNL1        0.0414
     18 C          51.8556   95.9895   -2.4514 C.ar    1  UNL1        0.1023
     19 N          50.8705   96.1748   -3.5672 N.ar    1  UNL1       -0.2224
     20 C          51.3530   96.2832   -4.9834 C.ar    1  UNL1        0.1989
     21 N          52.8206   96.2064   -5.2837 N.ar    1  UNL1       -0.2224
     22 C          62.9981   93.5260    0.2434 C.ar    1  UNL1        0.1519
     23 C          63.9536   93.0390    1.2920 C.ar    1  UNL1        0.0382
     24 C          63.4302   92.4580    2.5720 C.ar    1  UNL1        0.0032
     25 C          61.9511   92.3641    2.8034 C.ar    1  UNL1        0.0015
     26 C          60.9956   92.8512    1.7548 C.ar    1  UNL1        0.0176
     27 C          61.5191   93.4321    0.4748 C.ar    1  UNL1        0.0824
     28 C          64.5427   95.2051   -0.9996 C.3     1  UNL1        0.2525
     29 O          63.5216   94.1070   -1.0367 O.3     1  UNL1       -0.4702
@<TRIPOS>BOND
     1    28    29    1
     2    29    22    1
     3    22    23   ar
     4    23    24   ar
     5    24    25   ar
     6    25    26   ar
     7    26    27   ar
     8    27     1    1
     9     1     2    1
    10     2     3    1
    11     3     4    1
    12     4     8    1
    13     8     9   ar
    14     9    10   ar
    15    10    16    1
    16    16    17   ar
    17    17    18   ar
    18    18    19   ar
    19    19    20   ar
    20    20    21   ar
    21    10    11   ar
    22    11    12   ar
    23    12    13    2
    24    12    14   ar
    25    14    15    1
    26     4     5    1
    27     5     6    1
    28     5     7    1
    29    27    22   ar
    30     7     1    1
    31    14     8   ar
    32    21    16   ar
@<TRIPOS>MOLECULE
*****
 29 32 0 0 0
SMALL
GASTEIGER

@<TRIPOS>ATOM
      1 N          61.7244   94.7130   -0.8071 N.pl3   1  UNL1       -0.3018
      2 C          62.0215   94.0625   -2.1257 C.3     1  UNL1        0.1124
      3 C          60.9202   93.8476   -3.1210 C.3     1  UNL1        0.1149
      4 N          59.5216   94.2832   -2.7979 N.pl3   1  UNL1       -0.2777
      5 C          59.2245   94.9337   -1.4793 C.3     1  UNL1        0.0953
      6 C          57.8261   95.3694   -1.1562 C.3     1  UNL1        0.0233
      7 C          60.3260   95.1486   -0.4840 C.3     1  UNL1        0.1107
      8 C          58.4203   94.0683   -3.7932 C.ar    1  UNL1        0.2035
      9 N          57.6192   92.8005   -3.7634 N.ar    1  UNL1       -0.2133
     10 C          56.5178   92.5856   -4.7587 C.ar    1  UNL1        0.1065
     11 C          56.2175   93.6386   -5.7840 C.ar    1  UNL1        0.0815
     12 C          57.0186   94.9064   -5.8139 C.ar    1  UNL1        0.2646
     13 O          56.7183   95.9593   -6.8391 O.2     1  UNL1       -0.2668
     14 N          58.1200   95.1213   -4.8185 N.ar    1  UNL1       -0.2667
     15 C          58.9211   96.3891   -4.8483 C.3     1  UNL1        0.1363
     16 C          55.7168   91.3178   -4.7289 C.ar    1  UNL1        0.1024
     17 C          55.6332   90.5130   -3.4659 C.ar    1  UNL1        0.0414
     18 C          54.8321   89.2452   -3.4360 C.ar    1  UNL1        0.1023
     19 N          54.1146   88.7821   -4.6692 N.ar    1  UNL1       -0.2224
     20 C          54.1982   89.5869   -5.9323 C.ar    1  UNL1        0.1989
     21 N          54.9992   90.8548   -5.9621 N.ar    1  UNL1       -0.2224
     22 C          63.0528   93.9281    1.2832 C.ar    1  UNL1        0.1519
     23 C          64.1542   94.1431    2.2785 C.ar    1  UNL1        0.0382
     24 C          65.0287   95.3577    2.1789 C.ar    1  UNL1        0.0032
     25 C          64.8017   96.3575    1.0839 C.ar    1  UNL1        0.0015
     26 C          63.7003   96.1426    0.0886 C.ar    1  UNL1        0.0176
     27 C          62.8259   94.9279    0.1882 C.ar    1  UNL1        0.0824
     28 C          60.9689   92.7307    2.2697 C.3     1  UNL1        0.2525
     29 O          62.1784   92.7135    1.3828 O.3     1  UNL1       -0.4702
@<TRIPOS>BOND
     1    28    29    1
     2    29    22    1
     3    22    23   ar
     4    23    24   ar
     5    24    25   ar
     6    25    26   ar
     7    26    27   ar
     8    27     1    1
     9     1     2    1
    10     2     3    1
    11     3     4    1
    12     4     8    1
    13     8     9   ar
    14     9    10   ar
    15    10    16    1
    16    16    17   ar
    17    17    18   ar
    18    18    19   ar
    19    19    20   ar
    20    20    21   ar
    21    10    11   ar
    22    11    12   ar
    23    12    13    2
    24    12    14   ar
    25    14    15    1
    26     4     5    1
    27     5     6    1
    28     5     7    1
    29    27    22   ar
    30     7     1    1
    31    14     8   ar
    32    21    16   ar
@<TRIPOS>MOLECULE
*****
 29 32 0 0 0
SMALL
GASTEIGER

@<TRIPOS>ATOM
      1 N          61.7128   94.4202   -1.0146 N.pl3   1  UNL1       -0.3018
      2 C          62.0205   93.9068   -2.3901 C.3     1  UNL1        0.1124
      3 C          60.9184   93.7469   -3.3949 C.3     1  UNL1        0.1149
      4 N          59.5085   94.1003   -3.0243 N.pl3   1  UNL1       -0.2777
      5 C          59.2008   94.6137   -1.6489 C.3     1  UNL1        0.0953
      6 C          57.7909   94.9671   -1.2784 C.3     1  UNL1        0.0233
      7 C          60.3029   94.7736   -0.6441 C.3     1  UNL1        0.1107
      8 C          58.4064   93.9404   -4.0292 C.ar    1  UNL1        0.2035
      9 N          57.5705   92.6949   -4.0338 N.ar    1  UNL1       -0.2133
     10 C          56.4684   92.5350   -5.0386 C.ar    1  UNL1        0.1065
     11 C          56.2022   93.6206   -6.0390 C.ar    1  UNL1        0.0815
     12 C          57.0381   94.8661   -6.0344 C.ar    1  UNL1        0.2646
     13 O          56.7719   95.9517   -7.0347 O.2     1  UNL1       -0.2668
     14 N          58.1402   95.0260   -5.0295 N.ar    1  UNL1       -0.2667
     15 C          58.9761   96.2715   -5.0249 C.3     1  UNL1        0.1363
     16 C          55.6325   91.2895   -5.0432 C.ar    1  UNL1        0.1024
     17 C          54.9009   90.8818   -6.2875 C.ar    1  UNL1        0.0414
     18 C          54.0650   89.6364   -6.2921 C.ar    1  UNL1        0.1023
     19 N          53.9607   88.7985   -5.0523 N.ar    1  UNL1       -0.2224
     20 C          54.6924   89.2062   -3.8078 C.ar    1  UNL1        0.1989
     21 N          55.5283   90.4517   -3.8033 N.ar    1  UNL1       -0.2224
     22 C          63.8770   95.6182   -0.2203 C.ar    1  UNL1        0.1519
     23 C          64.9791   95.7781    0.7846 C.ar    1  UNL1        0.0382
     24 C          65.0192   94.8998    1.9999 C.ar    1  UNL1        0.0032
     25 C          63.9572   93.8617    2.2104 C.ar    1  UNL1        0.0015
     26 C          62.8551   93.7018    1.2056 C.ar    1  UNL1        0.0176
     27 C          62.8150   94.5801   -0.0098 C.ar    1  UNL1        0.0824
     28 C          64.8924   96.3627   -2.4928 C.3     1  UNL1        0.2525
     29 O          63.8369   96.4965   -1.4356 O.3     1  UNL1       -0.4702
@<TRIPOS>BOND
     1    28    29    1
     2    29    22    1
     3    22    23   ar
     4    23    24   ar
     5    24    25   ar
     6    25    26   ar
     7    26    27   ar
     8    27     1    1
     9     1     2    1
    10     2     3    1
    11     3     4    1
    12     4     8    1
    13     8     9   ar
    14     9    10   ar
    15    10    16    1
    16    16    17   ar
    17    17    18   ar
    18    18    19   ar
    19    19    20   ar
    20    20    21   ar
    21    10    11   ar
    22    11    12   ar
    23    12    13    2
    24    12    14   ar
    25    14    15    1
    26     4     5    1
    27     5     6    1
    28     5     7    1
    29    27    22   ar
    30     7     1    1
    31    14     8   ar
    32    21    16   ar
@<TRIPOS>MOLECULE
*****
 29 32 0 0 0
SMALL
GASTEIGER

@<TRIPOS>ATOM
      1 N          62.7084   84.1776   12.7375 N.pl3   1  UNL1       -0.3018
      2 C          61.9173   84.6199   11.5423 C.3     1  UNL1        0.1124
      3 C          61.8262   86.0777   11.2008 C.3     1  UNL1        0.1149
      4 N          62.5262   87.0932   12.0545 N.pl3   1  UNL1       -0.2777
      5 C          63.3173   86.6509   13.2497 C.3     1  UNL1        0.0953
      6 C          64.0173   87.6663   14.1034 C.3     1  UNL1        0.0233
      7 C          63.4084   85.1931   13.5912 C.3     1  UNL1        0.1107
      8 C          62.4351   88.5509   11.7130 C.ar    1  UNL1        0.2035
      9 N          63.6086   89.4530   11.9565 N.ar    1  UNL1       -0.2133
     10 C          63.5175   90.9108   11.6150 C.ar    1  UNL1        0.1065
     11 C          62.2529   91.4664   11.0299 C.ar    1  UNL1        0.0815
     12 C          61.0795   90.5643   10.7865 C.ar    1  UNL1        0.2646
     13 O          59.8150   91.1199   10.2015 O.2     1  UNL1       -0.2668
     14 N          61.1706   89.1065   11.1280 N.ar    1  UNL1       -0.2667
     15 C          59.9972   88.2044   10.8846 C.3     1  UNL1        0.1363
     16 C          64.6909   91.8129   11.8584 C.ar    1  UNL1        0.1024
     17 C          65.4814   92.3444   10.6998 C.ar    1  UNL1        0.0414
     18 C          66.6548   93.2465   10.9432 C.ar    1  UNL1        0.1023
     19 N          67.0377   93.6171   12.3454 N.ar    1  UNL1       -0.2224
     20 C          66.2472   93.0856   13.5041 C.ar    1  UNL1        0.1989
     21 N          65.0738   92.1835   13.2607 N.ar    1  UNL1       -0.2224
     22 C          63.8844   81.8753   12.4791 C.ar    1  UNL1        0.1519
     23 C          63.9754   80.4176   12.8206 C.ar    1  UNL1        0.0382
     24 C          62.9815   79.8043   13.7620 C.ar    1  UNL1        0.0032
     25 C          61.8966   80.6488   14.3618 C.ar    1  UNL1        0.0015
     26 C          61.8056   82.1065   14.0203 C.ar    1  UNL1        0.0176
     27 C          62.7995   82.7198   13.0790 C.ar    1  UNL1        0.0824
     28 C          64.4908   82.7686   10.1160 C.3     1  UNL1        0.2525
     29 O          64.8782   82.4886   11.5378 O.3     1  UNL1       -0.4702
@<TRIPOS>BOND
     1    28    29    1
     2    29    22    1
     3    22    23   ar
     4    23    24   ar
     5    24    25   ar
     6    25    26   ar
     7    26    27   ar
     8    27     1    1
     9     1     2    1
    10     2     3    1
    11     3     4    1
    12     4     8    1
    13     8     9   ar
    14     9    10   ar
    15    10    16    1
    16    16    17   ar
    17    17    18   ar
    18    18    19   ar
    19    19    20   ar
    20    20    21   ar
    21    10    11   ar
    22    11    12   ar
    23    12    13    2
    24    12    14   ar
    25    14    15    1
    26     4     5    1
    27     5     6    1
    28     5     7    1
    29    27    22   ar
    30     7     1    1
    31    14     8   ar
    32    21    16   ar
