@<TRIPOS>MOLECULE
*****
 34 37 0 0 0
SMALL
GASTEIGER

@<TRIPOS>ATOM
      1 C          64.0221   89.0776   15.3093 C.ar    1  UNL1        0.0537
      2 C          63.1887   88.9256   16.5472 C.ar    1  UNL1        0.0042
      3 C          62.8880   87.5583   17.0856 C.ar    1  UNL1       -0.0025
      4 C          63.4207   86.3430   16.3862 C.ar    1  UNL1       -0.0026
      5 C          64.2541   86.4950   15.1484 C.ar    1  UNL1       -0.0025
      6 C          64.5548   87.8623   14.6099 C.ar    1  UNL1        0.0042
      7 N          65.3339   90.6142   13.6759 N.am    1  UNL1       -0.2794
      8 C          64.3228   90.4450   14.7708 C.2     1  UNL1        0.2495
      9 O          63.6123   91.6431   15.3274 O.2     1  UNL1       -0.2698
     10 H          65.8002   89.8278   13.3106 H       1  UNL1        0.1552
     11 N          66.6554   92.6593   15.4284 N.pl3   1  UNL1       -0.3560
     12 C          66.2953   93.0041   14.0137 C.ar    1  UNL1        0.0552
     13 C          66.5959   94.3715   13.4752 C.ar    1  UNL1        0.0153
     14 C          66.2359   94.7163   12.0604 C.ar    1  UNL1        0.0013
     15 C          65.5751   93.6937   11.1842 C.ar    1  UNL1        0.0014
     16 C          65.2745   92.3264   11.7227 C.ar    1  UNL1        0.0159
     17 C          65.6346   91.9816   13.1374 C.ar    1  UNL1        0.0636
     18 H          67.0890   93.3305   16.0035 H       1  UNL1        0.1424
     19 H          66.4580   91.7619   15.7818 H       1  UNL1        0.1424
     20 C          63.1200   84.9755   16.9247 C.3     1  UNL1        0.1165
     21 N          62.2350   84.0431   16.1519 N.pl3   1  UNL1       -0.2990
     22 H          61.3777   83.7475   16.5350 H       1  UNL1        0.1500
     23 C          62.6562   83.5611   14.7953 C.ar    1  UNL1        0.2171
     24 N          63.3538   82.2410   14.6517 N.ar    1  UNL1       -0.2123
     25 C          63.7750   81.7590   13.2951 C.ar    1  UNL1        0.1034
     26 C          63.4987   82.5972   12.0822 C.ar    1  UNL1        0.0400
     27 C          62.8011   83.9173   12.2259 C.ar    1  UNL1        0.0872
     28 N          62.3799   84.3993   13.5825 N.ar    1  UNL1       -0.2137
     29 C          62.5247   84.7555   11.0130 C.ar    1  UNL1        0.0370
     30 C          63.2584   84.4867    9.7325 C.ar    1  UNL1        0.0046
     31 C          62.9820   85.3248    8.5196 C.ar    1  UNL1        0.0207
     32 C          61.9721   86.4318    8.5872 C.ar    1  UNL1        0.0989
     33 N          61.2384   86.7006    9.8676 N.ar    1  UNL1       -0.2423
     34 C          61.5148   85.8624   11.0805 C.ar    1  UNL1        0.1003
@<TRIPOS>BOND
     1    11    12    1
     2    12    13   ar
     3    13    14   ar
     4    14    15   ar
     5    15    16   ar
     6    16    17   ar
     7    17     7    1
     8     7     8   am
     9     8     9    2
    10     8     1    1
    11     1     2   ar
    12     2     3   ar
    13     3     4   ar
    14     4    20    1
    15    20    21    1
    16    21    23    1
    17    23    24   ar
    18    24    25   ar
    19    25    26   ar
    20    26    27   ar
    21    27    29    1
    22    29    30   ar
    23    30    31   ar
    24    31    32   ar
    25    32    33   ar
    26    33    34   ar
    27    27    28   ar
    28     4     5   ar
    29     5     6   ar
    30    17    12   ar
    31     6     1   ar
    32    28    23   ar
    33    34    29   ar
    34    11    18    1
    35    11    19    1
    36     7    10    1
    37    21    22    1
@<TRIPOS>MOLECULE
*****
 34 37 0 0 0
SMALL
GASTEIGER

@<TRIPOS>ATOM
      1 C          63.6690   91.1658   11.8627 C.ar    1  UNL1        0.0537
      2 C          63.4821   91.3121   10.3816 C.ar    1  UNL1        0.0042
      3 C          62.3102   90.6641    9.7060 C.ar    1  UNL1       -0.0025
      4 C          61.3251   89.8699   10.5114 C.ar    1  UNL1       -0.0026
      5 C          61.5120   89.7237   11.9925 C.ar    1  UNL1       -0.0025
      6 C          62.6840   90.3716   12.6682 C.ar    1  UNL1        0.0042
      7 N          65.4650   91.1685   13.7401 N.am    1  UNL1       -0.2794
      8 C          64.8411   91.8138   12.5384 C.2     1  UNL1        0.2495
      9 O          65.3891   93.1072   12.0123 O.2     1  UNL1       -0.2698
     10 H          65.1053   90.3196   14.0854 H       1  UNL1        0.1552
     11 N          65.1053   92.5293   16.3894 N.pl3   1  UNL1       -0.3560
     12 C          66.4572   92.4969   15.7404 C.ar    1  UNL1        0.0552
     13 C          67.6292   93.1449   16.4159 C.ar    1  UNL1        0.0153
     14 C          68.9811   93.1124   15.7669 C.ar    1  UNL1        0.0013
     15 C          69.1610   92.4320   14.4423 C.ar    1  UNL1        0.0014
     16 C          67.9890   91.7841   13.7667 C.ar    1  UNL1        0.0159
     17 C          66.6371   91.8165   14.4158 C.ar    1  UNL1        0.0636
     18 H          64.9872   92.9759   17.2588 H       1  UNL1        0.1424
     19 H          64.3360   92.1040   15.9460 H       1  UNL1        0.1424
     20 C          60.1530   89.2219    9.8357 C.3     1  UNL1        0.1165
     21 N          59.8490   87.7746   10.0863 N.pl3   1  UNL1       -0.2990
     22 H          58.9272   87.4928   10.2869 H       1  UNL1        0.1500
     23 C          60.9492   86.7566   10.0312 C.ar    1  UNL1        0.2171
     24 N          61.5866   86.4114    8.7180 N.ar    1  UNL1       -0.2123
     25 C          62.6868   85.3934    8.6629 C.ar    1  UNL1        0.1034
     26 C          63.1498   84.7205    9.9211 C.ar    1  UNL1        0.0400
     27 C          62.5124   85.0657   11.2343 C.ar    1  UNL1        0.0872
     28 N          61.4121   86.0837   11.2893 N.ar    1  UNL1       -0.2137
     29 C          62.9753   84.3929   12.4925 C.ar    1  UNL1        0.0370
     30 C          62.8551   82.9044   12.6349 C.ar    1  UNL1        0.0046
     31 C          63.3180   82.2316   13.8930 C.ar    1  UNL1        0.0207
     32 C          63.9011   83.0471   15.0088 C.ar    1  UNL1        0.0989
     33 N          64.0213   84.5355   14.8664 N.ar    1  UNL1       -0.2423
     34 C          63.5584   85.2084   13.6082 C.ar    1  UNL1        0.1003
@<TRIPOS>BOND
     1    11    12    1
     2    12    13   ar
     3    13    14   ar
     4    14    15   ar
     5    15    16   ar
     6    16    17   ar
     7    17     7    1
     8     7     8   am
     9     8     9    2
    10     8     1    1
    11     1     2   ar
    12     2     3   ar
    13     3     4   ar
    14     4    20    1
    15    20    21    1
    16    21    23    1
    17    23    24   ar
    18    24    25   ar
    19    25    26   ar
    20    26    27   ar
    21    27    29    1
    22    29    30   ar
    23    30    31   ar
    24    31    32   ar
    25    32    33   ar
    26    33    34   ar
    27    27    28   ar
    28     4     5   ar
    29     5     6   ar
    30    17    12   ar
    31     6     1   ar
    32    28    23   ar
    33    34    29   ar
    34    11    18    1
    35    11    19    1
    36     7    10    1
    37    21    22    1
@<TRIPOS>MOLECULE
*****
 34 37 0 0 0
SMALL
GASTEIGER

@<TRIPOS>ATOM
      1 C          63.7051   86.2472   15.1003 C.ar    1  UNL1        0.0537
      2 C          64.2030   87.4176   14.3052 C.ar    1  UNL1        0.0042
      3 C          64.1420   88.7993   14.8859 C.ar    1  UNL1       -0.0025
      4 C          63.5829   89.0105   16.2617 C.ar    1  UNL1       -0.0026
      5 C          63.0850   87.8401   17.0568 C.ar    1  UNL1       -0.0025
      6 C          63.1460   86.4585   16.4761 C.ar    1  UNL1        0.0042
      7 N          62.5260   84.2294   13.9653 N.am    1  UNL1       -0.2794
      8 C          63.7662   84.8655   14.5196 C.2     1  UNL1        0.2495
      9 O          65.0675   84.1200   14.4931 O.2     1  UNL1       -0.2698
     10 H          61.6719   84.7187   13.9827 H       1  UNL1        0.1552
     11 N          63.3407   83.8393   11.1045 N.pl3   1  UNL1       -0.3560
     12 C          62.9944   82.6526   11.9542 C.ar    1  UNL1        0.0552
     13 C          63.0555   81.2710   11.3735 C.ar    1  UNL1        0.0153
     14 C          62.7092   80.0843   12.2232 C.ar    1  UNL1        0.0013
     15 C          62.3019   80.2793   13.6536 C.ar    1  UNL1        0.0014
     16 C          62.2408   81.6610   14.2343 C.ar    1  UNL1        0.0159
     17 C          62.5871   82.8477   13.3846 C.ar    1  UNL1        0.0636
     18 H          63.6080   83.7113   10.1657 H       1  UNL1        0.1424
     19 H          63.3006   84.7461   11.4857 H       1  UNL1        0.1424
     20 C          63.5218   90.3922   16.8424 C.3     1  UNL1        0.1165
     21 N          63.6090   91.5888   15.9420 N.pl3   1  UNL1       -0.2990
     22 H          62.7865   92.0300   15.6287 H       1  UNL1        0.1500
     23 C          64.9492   92.1130   15.5190 C.ar    1  UNL1        0.2171
     24 N          65.9885   92.4350   16.5515 N.ar    1  UNL1       -0.2123
     25 C          67.3287   92.9593   16.1284 C.ar    1  UNL1        0.1034
     26 C          67.6296   93.1616   14.6728 C.ar    1  UNL1        0.0400
     27 C          66.5902   92.8396   13.6404 C.ar    1  UNL1        0.0872
     28 N          65.2499   92.3153   14.0635 N.ar    1  UNL1       -0.2137
     29 C          66.8910   93.0419   12.1849 C.ar    1  UNL1        0.0370
     30 C          67.7686   92.0665   11.4577 C.ar    1  UNL1        0.0046
     31 C          68.0694   92.2688   10.0022 C.ar    1  UNL1        0.0207
     32 C          67.4926   93.4464    9.2738 C.ar    1  UNL1        0.0989
     33 N          66.6151   94.4217   10.0008 N.ar    1  UNL1       -0.2423
     34 C          66.3142   94.2195   11.4564 C.ar    1  UNL1        0.1003
@<TRIPOS>BOND
     1    11    12    1
     2    12    13   ar
     3    13    14   ar
     4    14    15   ar
     5    15    16   ar
     6    16    17   ar
     7    17     7    1
     8     7     8   am
     9     8     9    2
    10     8     1    1
    11     1     2   ar
    12     2     3   ar
    13     3     4   ar
    14     4    20    1
    15    20    21    1
    16    21    23    1
    17    23    24   ar
    18    24    25   ar
    19    25    26   ar
    20    26    27   ar
    21    27    29    1
    22    29    30   ar
    23    30    31   ar
    24    31    32   ar
    25    32    33   ar
    26    33    34   ar
    27    27    28   ar
    28     4     5   ar
    29     5     6   ar
    30    17    12   ar
    31     6     1   ar
    32    28    23   ar
    33    34    29   ar
    34    11    18    1
    35    11    19    1
    36     7    10    1
    37    21    22    1
@<TRIPOS>MOLECULE
*****
 34 37 0 0 0
SMALL
GASTEIGER

@<TRIPOS>ATOM
      1 C          65.3155   91.7666   12.9791 C.ar    1  UNL1        0.0537
      2 C          64.1154   91.0381   12.4509 C.ar    1  UNL1        0.0042
      3 C          63.5836   89.8405   13.1809 C.ar    1  UNL1       -0.0025
      4 C          64.2520   89.3713   14.4391 C.ar    1  UNL1       -0.0026
      5 C          65.4522   90.0998   14.9673 C.ar    1  UNL1       -0.0025
      6 C          65.9839   91.2974   14.2373 C.ar    1  UNL1        0.0042
      7 N          65.5620   93.1390   10.7869 N.am    1  UNL1       -0.2794
      8 C          65.8472   92.9643   12.2491 C.2     1  UNL1        0.2495
      9 O          66.6640   93.9873   12.9814 O.2     1  UNL1       -0.2698
     10 H          65.0259   92.4675   10.3063 H       1  UNL1        0.1552
     11 N          68.0291   92.8929    9.0978 N.pl3   1  UNL1       -0.3560
     12 C          67.3273   94.2136    9.2123 C.ar    1  UNL1        0.0552
     13 C          67.8589   95.4113    8.4824 C.ar    1  UNL1        0.0153
     14 C          67.1570   96.7320    8.5969 C.ar    1  UNL1        0.0013
     15 C          65.9235   96.8550    9.4414 C.ar    1  UNL1        0.0014
     16 C          65.3919   95.6574   10.1714 C.ar    1  UNL1        0.0159
     17 C          66.0937   94.3367   10.0569 C.ar    1  UNL1        0.0636
     18 H          68.8387   92.8122    8.5435 H       1  UNL1        0.1424
     19 H          67.6802   92.1069    9.5769 H       1  UNL1        0.1424
     20 C          63.7203   88.1736   15.1691 C.3     1  UNL1        0.1165
     21 N          64.3783   86.8368   14.9961 N.pl3   1  UNL1       -0.2990
     22 H          65.1035   86.5628   15.6030 H       1  UNL1        0.1500
     23 C          63.9314   85.9173   13.8984 C.ar    1  UNL1        0.2171
     24 N          64.3262   84.4705   13.9248 N.ar    1  UNL1       -0.2123
     25 C          63.8793   83.5510   12.8271 C.ar    1  UNL1        0.1034
     26 C          63.0375   84.0784   11.7031 C.ar    1  UNL1        0.0400
     27 C          62.6428   85.5253   11.6768 C.ar    1  UNL1        0.0872
     28 N          63.0897   86.4448   12.7745 N.ar    1  UNL1       -0.2137
     29 C          61.8011   86.0528   10.5528 C.ar    1  UNL1        0.0370
     30 C          62.0173   85.5526    9.1552 C.ar    1  UNL1        0.0046
     31 C          61.1756   86.0800    8.0313 C.ar    1  UNL1        0.0207
     32 C          60.1177   87.1076    8.3048 C.ar    1  UNL1        0.0989
     33 N          59.9014   87.6078    9.7023 N.ar    1  UNL1       -0.2423
     34 C          60.7431   87.0803   10.8263 C.ar    1  UNL1        0.1003
@<TRIPOS>BOND
     1    11    12    1
     2    12    13   ar
     3    13    14   ar
     4    14    15   ar
     5    15    16   ar
     6    16    17   ar
     7    17     7    1
     8     7     8   am
     9     8     9    2
    10     8     1    1
    11     1     2   ar
    12     2     3   ar
    13     3     4   ar
    14     4    20    1
    15    20    21    1
    16    21    23    1
    17    23    24   ar
    18    24    25   ar
    19    25    26   ar
    20    26    27   ar
    21    27    29    1
    22    29    30   ar
    23    30    31   ar
    24    31    32   ar
    25    32    33   ar
    26    33    34   ar
    27    27    28   ar
    28     4     5   ar
    29     5     6   ar
    30    17    12   ar
    31     6     1   ar
    32    28    23   ar
    33    34    29   ar
    34    11    18    1
    35    11    19    1
    36     7    10    1
    37    21    22    1
@<TRIPOS>MOLECULE
*****
 34 37 0 0 0
SMALL
GASTEIGER

@<TRIPOS>ATOM
      1 C          63.4391   89.0721   12.6699 C.ar    1  UNL1        0.0537
      2 C          63.4489   90.5338   12.3330 C.ar    1  UNL1        0.0042
      3 C          64.0798   91.5163   13.2746 C.ar    1  UNL1       -0.0025
      4 C          64.7009   91.0371   14.5531 C.ar    1  UNL1       -0.0026
      5 C          64.6912   89.5755   14.8900 C.ar    1  UNL1       -0.0025
      6 C          64.0603   88.5930   13.9484 C.ar    1  UNL1        0.0042
      7 N          62.5008   88.4945   10.3171 N.am    1  UNL1       -0.2794
      8 C          62.8082   88.0896   11.7283 C.2     1  UNL1        0.2495
      9 O          62.4847   86.7022   12.1979 O.2     1  UNL1       -0.2698
     10 H          62.7131   89.4050   10.0089 H       1  UNL1        0.1552
     11 N          59.6797   88.9095    9.3847 N.pl3   1  UNL1       -0.3560
     12 C          60.4593   87.7195    8.9093 C.ar    1  UNL1        0.0552
     13 C          59.8284   86.7370    7.9677 C.ar    1  UNL1        0.0153
     14 C          60.6081   85.5470    7.4922 C.ar    1  UNL1        0.0013
     15 C          62.0186   85.3394    7.9584 C.ar    1  UNL1        0.0014
     16 C          62.6494   86.3219    8.9000 C.ar    1  UNL1        0.0159
     17 C          61.8698   87.5119    9.3754 C.ar    1  UNL1        0.0636
     18 H          58.7539   89.0457    9.0788 H       1  UNL1        0.1424
     19 H          60.0938   89.5543   10.0027 H       1  UNL1        0.1424
     20 C          65.3319   92.0196   15.4947 C.3     1  UNL1        0.1165
     21 N          66.3561   92.9918   14.9888 N.pl3   1  UNL1       -0.2990
     22 H          66.6897   93.7065   15.5780 H       1  UNL1        0.1500
     23 C          66.8720   92.8750   13.5852 C.ar    1  UNL1        0.2171
     24 N          67.7698   91.7339   13.2087 N.ar    1  UNL1       -0.2123
     25 C          68.2858   91.6172   11.8051 C.ar    1  UNL1        0.1034
     26 C          67.9039   92.6416   10.7780 C.ar    1  UNL1        0.0400
     27 C          67.0062   93.7827   11.1545 C.ar    1  UNL1        0.0872
     28 N          66.4902   93.8994   12.5582 N.ar    1  UNL1       -0.2137
     29 C          66.6243   94.8071   10.1275 C.ar    1  UNL1        0.0370
     30 C          67.5006   95.0324    8.9311 C.ar    1  UNL1        0.0046
     31 C          67.1188   96.0568    7.9041 C.ar    1  UNL1        0.0207
     32 C          65.8607   96.8559    8.0734 C.ar    1  UNL1        0.0989
     33 N          64.9844   96.6305    9.2697 N.ar    1  UNL1       -0.2423
     34 C          65.3662   95.6061   10.2968 C.ar    1  UNL1        0.1003
@<TRIPOS>BOND
     1    11    12    1
     2    12    13   ar
     3    13    14   ar
     4    14    15   ar
     5    15    16   ar
     6    16    17   ar
     7    17     7    1
     8     7     8   am
     9     8     9    2
    10     8     1    1
    11     1     2   ar
    12     2     3   ar
    13     3     4   ar
    14     4    20    1
    15    20    21    1
    16    21    23    1
    17    23    24   ar
    18    24    25   ar
    19    25    26   ar
    20    26    27   ar
    21    27    29    1
    22    29    30   ar
    23    30    31   ar
    24    31    32   ar
    25    32    33   ar
    26    33    34   ar
    27    27    28   ar
    28     4     5   ar
    29     5     6   ar
    30    17    12   ar
    31     6     1   ar
    32    28    23   ar
    33    34    29   ar
    34    11    18    1
    35    11    19    1
    36     7    10    1
    37    21    22    1
@<TRIPOS>MOLECULE
*****
 34 37 0 0 0
SMALL
GASTEIGER

@<TRIPOS>ATOM
      1 C          63.5983   86.2184   15.3236 C.ar    1  UNL1        0.0537
      2 C          64.2754   87.1496   14.3621 C.ar    1  UNL1        0.0042
      3 C          64.3560   88.6157   14.6686 C.ar    1  UNL1       -0.0025
      4 C          63.7594   89.1506   15.9366 C.ar    1  UNL1       -0.0026
      5 C          63.0823   88.2195   16.8981 C.ar    1  UNL1       -0.0025
      6 C          63.0018   86.7534   16.5916 C.ar    1  UNL1        0.0042
      7 N          62.6810   84.2709   13.8689 N.am    1  UNL1       -0.2794
      8 C          63.5178   84.7522   15.0170 C.2     1  UNL1        0.2495
      9 O          64.2740   83.7674   15.8586 O.2     1  UNL1       -0.2698
     10 H          62.1846   84.9173   13.3166 H       1  UNL1        0.1552
     11 N          64.4887   83.0700   11.7977 N.pl3   1  UNL1       -0.3560
     12 C          63.5043   82.2043   12.5268 C.ar    1  UNL1        0.0552
     13 C          63.4237   80.7382   12.2203 C.ar    1  UNL1        0.0153
     14 C          62.4393   79.8725   12.9493 C.ar    1  UNL1        0.0013
     15 C          61.5355   80.4730   13.9849 C.ar    1  UNL1        0.0014
     16 C          61.6160   81.9391   14.2914 C.ar    1  UNL1        0.0159
     17 C          62.6005   82.8047   13.5624 C.ar    1  UNL1        0.0636
     18 H          65.0820   82.6759   11.1180 H       1  UNL1        0.1424
     19 H          64.5416   84.0322   11.9989 H       1  UNL1        0.1424
     20 C          63.8400   90.6168   16.2432 C.3     1  UNL1        0.1165
     21 N          64.7232   91.5075   15.4207 N.pl3   1  UNL1       -0.2990
     22 H          65.4190   92.0500   15.8577 H       1  UNL1        0.1500
     23 C          64.5465   91.5718   13.9326 C.ar    1  UNL1        0.2171
     24 N          65.3976   92.4981   13.1155 N.ar    1  UNL1       -0.2123
     25 C          65.2208   92.5623   11.6274 C.ar    1  UNL1        0.1034
     26 C          64.1930   91.7002   10.9563 C.ar    1  UNL1        0.0400
     27 C          63.3419   90.7739   11.7733 C.ar    1  UNL1        0.0872
     28 N          63.5187   90.7097   13.2615 N.ar    1  UNL1       -0.2137
     29 C          62.3141   89.9118   11.1023 C.ar    1  UNL1        0.0370
     30 C          62.4856   88.4218   11.0773 C.ar    1  UNL1        0.0046
     31 C          61.4578   87.5597   10.4063 C.ar    1  UNL1        0.0207
     32 C          60.2585   88.1875    9.7601 C.ar    1  UNL1        0.0989
     33 N          60.0870   89.6775    9.7850 N.ar    1  UNL1       -0.2423
     34 C          61.1148   90.5396   10.4561 C.ar    1  UNL1        0.1003
@<TRIPOS>BOND
     1    11    12    1
     2    12    13   ar
     3    13    14   ar
     4    14    15   ar
     5    15    16   ar
     6    16    17   ar
     7    17     7    1
     8     7     8   am
     9     8     9    2
    10     8     1    1
    11     1     2   ar
    12     2     3   ar
    13     3     4   ar
    14     4    20    1
    15    20    21    1
    16    21    23    1
    17    23    24   ar
    18    24    25   ar
    19    25    26   ar
    20    26    27   ar
    21    27    29    1
    22    29    30   ar
    23    30    31   ar
    24    31    32   ar
    25    32    33   ar
    26    33    34   ar
    27    27    28   ar
    28     4     5   ar
    29     5     6   ar
    30    17    12   ar
    31     6     1   ar
    32    28    23   ar
    33    34    29   ar
    34    11    18    1
    35    11    19    1
    36     7    10    1
    37    21    22    1
@<TRIPOS>MOLECULE
*****
 34 37 0 0 0
SMALL
GASTEIGER

@<TRIPOS>ATOM
      1 C          62.5900   86.7860   11.4425 C.ar    1  UNL1        0.0537
      2 C          61.9989   87.3406   10.1803 C.ar    1  UNL1        0.0042
      3 C          62.0152   88.8197    9.9312 C.ar    1  UNL1       -0.0025
      4 C          62.6225   89.7441   10.9444 C.ar    1  UNL1       -0.0026
      5 C          63.2135   89.1896   12.2066 C.ar    1  UNL1       -0.0025
      6 C          63.1973   87.7105   12.4556 C.ar    1  UNL1        0.0042
      7 N          62.7761   84.7779   13.0804 N.am    1  UNL1       -0.2794
      8 C          62.5737   85.3069   11.6915 C.2     1  UNL1        0.2495
      9 O          62.3551   84.3568   10.5515 O.2     1  UNL1       -0.2698
     10 H          62.9196   85.4015   13.8286 H       1  UNL1        0.1552
     11 N          64.9546   83.0445   11.9626 N.pl3   1  UNL1       -0.3560
     12 C          63.8490   82.4321   12.7705 C.ar    1  UNL1        0.0552
     13 C          63.8327   80.9530   13.0195 C.ar    1  UNL1        0.0153
     14 C          62.7272   80.3406   13.8275 C.ar    1  UNL1        0.0013
     15 C          61.6379   81.2073   14.3863 C.ar    1  UNL1        0.0014
     16 C          61.6542   82.6863   14.1373 C.ar    1  UNL1        0.0159
     17 C          62.7598   83.2987   13.3294 C.ar    1  UNL1        0.0636
     18 H          65.6695   82.4756   11.5958 H       1  UNL1        0.1424
     19 H          64.9653   84.0152   11.7992 H       1  UNL1        0.1424
     20 C          62.6388   91.2233   10.6954 C.3     1  UNL1        0.1165
     21 N          63.7780   91.8447    9.9430 N.pl3   1  UNL1       -0.2990
     22 H          63.9182   91.6260    8.9934 H       1  UNL1        0.1500
     23 C          64.7035   92.7992   10.6375 C.ar    1  UNL1        0.2171
     24 N          65.0069   94.1324   10.0206 N.ar    1  UNL1       -0.2123
     25 C          65.9324   95.0869   10.7150 C.ar    1  UNL1        0.1034
     26 C          66.5545   94.7082   12.0264 C.ar    1  UNL1        0.0400
     27 C          66.2511   93.3750   12.6433 C.ar    1  UNL1        0.0872
     28 N          65.3255   92.4205   11.9488 N.ar    1  UNL1       -0.2137
     29 C          66.8731   92.9964   13.9546 C.ar    1  UNL1        0.0370
     30 C          68.2995   92.5345   14.0026 C.ar    1  UNL1        0.0046
     31 C          68.9216   92.1559   15.3139 C.ar    1  UNL1        0.0207
     32 C          68.1173   92.2390   16.5773 C.ar    1  UNL1        0.0989
     33 N          66.6910   92.7008   16.5294 N.ar    1  UNL1       -0.2423
     34 C          66.0689   93.0795   15.2181 C.ar    1  UNL1        0.1003
@<TRIPOS>BOND
     1    11    12    1
     2    12    13   ar
     3    13    14   ar
     4    14    15   ar
     5    15    16   ar
     6    16    17   ar
     7    17     7    1
     8     7     8   am
     9     8     9    2
    10     8     1    1
    11     1     2   ar
    12     2     3   ar
    13     3     4   ar
    14     4    20    1
    15    20    21    1
    16    21    23    1
    17    23    24   ar
    18    24    25   ar
    19    25    26   ar
    20    26    27   ar
    21    27    29    1
    22    29    30   ar
    23    30    31   ar
    24    31    32   ar
    25    32    33   ar
    26    33    34   ar
    27    27    28   ar
    28     4     5   ar
    29     5     6   ar
    30    17    12   ar
    31     6     1   ar
    32    28    23   ar
    33    34    29   ar
    34    11    18    1
    35    11    19    1
    36     7    10    1
    37    21    22    1
@<TRIPOS>MOLECULE
*****
 34 37 0 0 0
SMALL
GASTEIGER

@<TRIPOS>ATOM
      1 C          63.6861   85.8395   13.4086 C.ar    1  UNL1        0.0537
      2 C          63.0940   86.7425   12.3674 C.ar    1  UNL1        0.0042
      3 C          63.0718   88.2262   12.5862 C.ar    1  UNL1       -0.0025
      4 C          63.6417   88.8070   13.8463 C.ar    1  UNL1       -0.0026
      5 C          64.2338   87.9041   14.8876 C.ar    1  UNL1       -0.0025
      6 C          64.2559   86.4203   14.6687 C.ar    1  UNL1        0.0042
      7 N          62.6294   83.7010   12.3789 N.am    1  UNL1       -0.2794
      8 C          63.7082   84.3557   13.1897 C.2     1  UNL1        0.2495
      9 O          64.8093   83.5267   13.7816 O.2     1  UNL1       -0.2698
     10 H          61.9067   84.2452   11.9904 H       1  UNL1        0.1552
     11 N          62.0127   81.8403   14.6499 N.pl3   1  UNL1       -0.3560
     12 C          62.3432   81.2869   13.2955 C.ar    1  UNL1        0.0552
     13 C          62.3654   79.8031   13.0765 C.ar    1  UNL1        0.0153
     14 C          62.6959   79.2497   11.7221 C.ar    1  UNL1        0.0013
     15 C          63.0042   80.1801   10.5866 C.ar    1  UNL1        0.0014
     16 C          62.9821   81.6638   10.8055 C.ar    1  UNL1        0.0159
     17 C          62.6515   82.2172   12.1600 C.ar    1  UNL1        0.0636
     18 H          61.8103   81.2297   15.3951 H       1  UNL1        0.1424
     19 H          61.9981   82.8141   14.7936 H       1  UNL1        0.1424
     20 C          63.6195   90.2909   14.0653 C.3     1  UNL1        0.1165
     21 N          64.4171   90.8962   15.1822 N.pl3   1  UNL1       -0.2990
     22 H          64.2765   90.5926   16.1081 H       1  UNL1        0.1500
     23 C          65.4287   91.9640   14.8884 C.ar    1  UNL1        0.2171
     24 N          66.4127   92.3755   15.9431 N.ar    1  UNL1       -0.2123
     25 C          67.4243   93.4433   15.6493 C.ar    1  UNL1        0.1034
     26 C          67.4520   94.0996   14.3008 C.ar    1  UNL1        0.0400
     27 C          66.4680   93.6881   13.2461 C.ar    1  UNL1        0.0872
     28 N          65.4564   92.6202   13.5399 N.ar    1  UNL1       -0.2137
     29 C          66.4957   94.3444   11.8976 C.ar    1  UNL1        0.0370
     30 C          66.2385   95.8171   11.7747 C.ar    1  UNL1        0.0046
     31 C          66.2661   96.4734   10.4262 C.ar    1  UNL1        0.0207
     32 C          66.5510   95.6570    9.2005 C.ar    1  UNL1        0.0989
     33 N          66.8082   94.1843    9.3233 N.ar    1  UNL1       -0.2423
     34 C          66.7805   93.5280   10.6718 C.ar    1  UNL1        0.1003
@<TRIPOS>BOND
     1    11    12    1
     2    12    13   ar
     3    13    14   ar
     4    14    15   ar
     5    15    16   ar
     6    16    17   ar
     7    17     7    1
     8     7     8   am
     9     8     9    2
    10     8     1    1
    11     1     2   ar
    12     2     3   ar
    13     3     4   ar
    14     4    20    1
    15    20    21    1
    16    21    23    1
    17    23    24   ar
    18    24    25   ar
    19    25    26   ar
    20    26    27   ar
    21    27    29    1
    22    29    30   ar
    23    30    31   ar
    24    31    32   ar
    25    32    33   ar
    26    33    34   ar
    27    27    28   ar
    28     4     5   ar
    29     5     6   ar
    30    17    12   ar
    31     6     1   ar
    32    28    23   ar
    33    34    29   ar
    34    11    18    1
    35    11    19    1
    36     7    10    1
    37    21    22    1
@<TRIPOS>MOLECULE
*****
 34 37 0 0 0
SMALL
GASTEIGER

@<TRIPOS>ATOM
      1 C          60.1129   92.1534    3.7592 C.ar    1  UNL1        0.0537
      2 C          61.0349   91.2289    4.4976 C.ar    1  UNL1        0.0042
      3 C          60.4898   90.3080    5.5487 C.ar    1  UNL1       -0.0025
      4 C          59.0228   90.3116    5.8614 C.ar    1  UNL1       -0.0026
      5 C          58.1008   91.2362    5.1230 C.ar    1  UNL1       -0.0025
      6 C          58.6459   92.1570    4.0719 C.ar    1  UNL1        0.0042
      7 N          61.7508   92.6055    1.7937 N.am    1  UNL1       -0.2794
      8 C          60.6580   93.0743    2.7081 C.2     1  UNL1        0.2495
      9 O          60.1104   94.4641    2.5713 O.2     1  UNL1       -0.2698
     10 H          62.1102   91.6934    1.8835 H       1  UNL1        0.1552
     11 N          64.3227   94.0737    2.2731 N.pl3   1  UNL1       -0.3560
     12 C          63.5818   94.2605    0.9823 C.ar    1  UNL1        0.0552
     13 C          64.1269   95.1813   -0.0688 C.ar    1  UNL1        0.0153
     14 C          63.3860   95.3681   -1.3596 C.ar    1  UNL1        0.0013
     15 C          62.1001   94.6341   -1.5994 C.ar    1  UNL1        0.0014
     16 C          61.5551   93.7132   -0.5482 C.ar    1  UNL1        0.0159
     17 C          62.2959   93.5264    0.7426 C.ar    1  UNL1        0.0636
     18 H          65.1667   94.5555    2.4305 H       1  UNL1        0.1424
     19 H          63.9649   93.4693    2.9630 H       1  UNL1        0.1424
     20 C          58.4777   89.3907    6.9125 C.3     1  UNL1        0.1165
     21 N          59.2219   88.1390    7.2721 N.pl3   1  UNL1       -0.2990
     22 H          59.1334   87.3352    6.7106 H       1  UNL1        0.1500
     23 C          60.1010   88.1119    8.4872 C.ar    1  UNL1        0.2171
     24 N          60.2698   89.3491    9.3184 N.ar    1  UNL1       -0.2123
     25 C          61.1489   89.3220   10.5335 C.ar    1  UNL1        0.1034
     26 C          61.8593   88.0578   10.9173 C.ar    1  UNL1        0.0400
     27 C          61.6905   86.8207   10.0860 C.ar    1  UNL1        0.0872
     28 N          60.8113   86.8478    8.8709 N.ar    1  UNL1       -0.2137
     29 C          62.4008   85.5566   10.4698 C.ar    1  UNL1        0.0370
     30 C          63.1437   84.7689    9.4316 C.ar    1  UNL1        0.0046
     31 C          63.8541   83.5047    9.8153 C.ar    1  UNL1        0.0207
     32 C          63.8215   83.0282   11.2373 C.ar    1  UNL1        0.0989
     33 N          63.0787   83.8158   12.2754 N.ar    1  UNL1       -0.2423
     34 C          62.3683   85.0800   11.8917 C.ar    1  UNL1        0.1003
@<TRIPOS>BOND
     1    11    12    1
     2    12    13   ar
     3    13    14   ar
     4    14    15   ar
     5    15    16   ar
     6    16    17   ar
     7    17     7    1
     8     7     8   am
     9     8     9    2
    10     8     1    1
    11     1     2   ar
    12     2     3   ar
    13     3     4   ar
    14     4    20    1
    15    20    21    1
    16    21    23    1
    17    23    24   ar
    18    24    25   ar
    19    25    26   ar
    20    26    27   ar
    21    27    29    1
    22    29    30   ar
    23    30    31   ar
    24    31    32   ar
    25    32    33   ar
    26    33    34   ar
    27    27    28   ar
    28     4     5   ar
    29     5     6   ar
    30    17    12   ar
    31     6     1   ar
    32    28    23   ar
    33    34    29   ar
    34    11    18    1
    35    11    19    1
    36     7    10    1
    37    21    22    1
