@<TRIPOS>MOLECULE
*****
 34 37 0 0 0
SMALL
GASTEIGER

@<TRIPOS>ATOM
      1 C          61.5710   88.6161   10.6842 C.ar    1  UNL1        0.0949
      2 C          60.5310   88.7800    9.6157 C.ar    1  UNL1        0.1454
      3 F          59.6911   90.0219    9.5707 F       1  UNL1       -0.2040
      4 C          60.3310   87.7018    8.5923 C.ar    1  UNL1        0.0312
      5 C          61.1709   86.4598    8.6373 C.ar    1  UNL1        0.0204
      6 C          62.2109   86.2959    9.7058 C.ar    1  UNL1        0.0924
      7 C          62.4109   87.3741   10.7292 C.ar    1  UNL1        0.1598
      8 F          63.4508   87.2104   11.7977 F       1  UNL1       -0.2026
      9 C          61.7711   89.6944   11.7077 C.2     1  UNL1        0.2007
     10 O          60.8350   89.8037   12.8746 O.2     1  UNL1       -0.2866
     11 C          64.0507   90.5729   14.0533 C.2     1  UNL1        0.1360
     12 C          65.1615   91.1213   14.8990 C.2     1  UNL1        0.0837
     13 C          66.1190   92.1219   14.3227 C.2     1  UNL1        0.2385
     14 N          65.9656   92.5742   12.9008 N.2     1  UNL1       -0.0338
     15 C          64.8547   92.0258   12.0551 C.2     1  UNL1        0.3626
     16 N          64.4564   92.2822   10.6319 N.2     1  UNL1       -0.0341
     17 C          63.2527   91.4400   10.3285 C.2     1  UNL1        0.2355
     18 C          62.9072   90.6632   11.5643 C.2     1  UNL1        0.0823
     19 C          63.8973   91.0252   12.6314 C.3     1  UNL1        0.1973
     20 C          63.0777   89.3137   16.1070 C.3     1  UNL1        0.2520
     21 O          63.0932   89.5723   14.6295 O.2     1  UNL1       -0.4746
     22 N          63.0507   85.0540    9.7508 N.pl3   1  UNL1       -0.2127
     23 H          63.6841   84.8613    9.0221 H       1  UNL1        0.1738
     24 S          62.9257   84.1055   10.9061 S.O2    1  UNL1        0.0759
     25 O          64.2122   83.4469   10.5046 O.2     1  UNL1       -0.1499
     26 O          61.6392   84.7641   11.3075 O.2     1  UNL1       -0.1499
     27 C          62.8005   83.1571   12.0614 C.ar    1  UNL1        0.1547
     28 C          62.6115   81.6903   11.8106 C.ar    1  UNL1        0.0521
     29 C          62.4863   80.7418   12.9658 C.ar    1  UNL1        0.1416
     30 F          62.2972   79.2750   12.7149 F       1  UNL1       -0.2041
     31 C          62.5502   81.2600   14.3720 C.ar    1  UNL1        0.0320
     32 C          62.7393   82.7268   14.6228 C.ar    1  UNL1        0.0333
     33 C          62.8644   83.6753   13.4676 C.ar    1  UNL1        0.1590
     34 F          63.0535   85.1420   13.7185 F       1  UNL1       -0.2027
@<TRIPOS>BOND
     1    20    21    1
     2    21    11    1
     3    11    12    2
     4    12    13    1
     5    13    14    2
     6    14    15    1
     7    15    16    2
     8    16    17    1
     9    17    18    2
    10    18     9    1
    11     9    10    2
    12     9     1    1
    13     1     2   ar
    14     2     3    1
    15     2     4   ar
    16     4     5   ar
    17     5     6   ar
    18     6    22    1
    19    22    24    1
    20    24    25    2
    21    24    26    2
    22    24    27    1
    23    27    28   ar
    24    28    29   ar
    25    29    30    1
    26    29    31   ar
    27    31    32   ar
    28    32    33   ar
    29    33    34    1
    30     6     7   ar
    31     7     8    1
    32    18    19    1
    33    19    11    1
    34    19    15    1
    35     7     1   ar
    36    33    27   ar
    37    22    23    1
@<TRIPOS>MOLECULE
*****
 34 37 0 0 0
SMALL
GASTEIGER

@<TRIPOS>ATOM
      1 C          63.2517   89.6840   12.0508 C.ar    1  UNL1        0.0949
      2 C          62.5728   89.2994   10.7697 C.ar    1  UNL1        0.1454
      3 F          62.1779   90.3579    9.7830 F       1  UNL1       -0.2040
      4 C          62.2889   87.8563   10.4754 C.ar    1  UNL1        0.0312
      5 C          62.6838   86.7977   11.4621 C.ar    1  UNL1        0.0204
      6 C          63.3627   87.1824   12.7432 C.ar    1  UNL1        0.0924
      7 C          63.6467   88.6255   13.0375 C.ar    1  UNL1        0.1598
      8 F          64.3256   89.0102   14.3186 F       1  UNL1       -0.2026
      9 C          63.5357   91.1273   12.3452 C.2     1  UNL1        0.2007
     10 O          62.4022   92.0895   12.5424 O.2     1  UNL1       -0.2866
     11 C          65.2273   92.0334   15.1359 C.2     1  UNL1        0.1360
     12 C          66.1817   92.4815   16.2027 C.2     1  UNL1        0.0837
     13 C          67.5756   92.8968   15.8358 C.2     1  UNL1        0.2385
     14 N          68.0151   92.8639   14.4020 N.2     1  UNL1       -0.0338
     15 C          67.0607   92.4157   13.3352 C.2     1  UNL1        0.3626
     16 N          67.2086   92.2799   11.8487 N.2     1  UNL1       -0.0341
     17 C          65.9062   91.7807   11.2969 C.2     1  UNL1        0.2355
     18 C          64.9533   91.6080   12.4424 C.2     1  UNL1        0.0823
     19 C          65.6668   92.0005   13.7021 C.3     1  UNL1        0.1973
     20 C          63.6104   90.6517   16.6281 C.3     1  UNL1        0.2520
     21 O          63.8334   91.6181   15.5028 O.2     1  UNL1       -0.4746
     22 N          63.7576   86.1239   13.7299 N.pl3   1  UNL1       -0.2127
     23 H          64.2272   86.3737   14.5583 H       1  UNL1        0.1738
     24 S          63.4371   84.6847   13.4544 S.O2    1  UNL1        0.0759
     25 O          61.9941   84.9456   13.7703 O.2     1  UNL1       -0.1499
     26 O          64.8800   84.4238   13.1384 O.2     1  UNL1       -0.1499
     27 C          63.1166   83.2455   13.1788 C.ar    1  UNL1        0.1547
     28 C          63.2473   82.7011   11.7872 C.ar    1  UNL1        0.0521
     29 C          62.9268   81.2619   11.5115 C.ar    1  UNL1        0.1416
     30 F          63.0575   80.7177   10.1198 F       1  UNL1       -0.2041
     31 C          62.4757   80.3670   12.6275 C.ar    1  UNL1        0.0320
     32 C          62.3451   80.9113   14.0192 C.ar    1  UNL1        0.0333
     33 C          62.6655   82.3505   14.2949 C.ar    1  UNL1        0.1590
     34 F          62.5349   82.8947   15.6865 F       1  UNL1       -0.2027
@<TRIPOS>BOND
     1    20    21    1
     2    21    11    1
     3    11    12    2
     4    12    13    1
     5    13    14    2
     6    14    15    1
     7    15    16    2
     8    16    17    1
     9    17    18    2
    10    18     9    1
    11     9    10    2
    12     9     1    1
    13     1     2   ar
    14     2     3    1
    15     2     4   ar
    16     4     5   ar
    17     5     6   ar
    18     6    22    1
    19    22    24    1
    20    24    25    2
    21    24    26    2
    22    24    27    1
    23    27    28   ar
    24    28    29   ar
    25    29    30    1
    26    29    31   ar
    27    31    32   ar
    28    32    33   ar
    29    33    34    1
    30     6     7   ar
    31     7     8    1
    32    18    19    1
    33    19    11    1
    34    19    15    1
    35     7     1   ar
    36    33    27   ar
    37    22    23    1
@<TRIPOS>MOLECULE
*****
 34 37 0 0 0
SMALL
GASTEIGER

@<TRIPOS>ATOM
      1 C          62.6788   86.5248   11.9299 C.ar    1  UNL1        0.0949
      2 C          61.7078   86.1155   10.8624 C.ar    1  UNL1        0.1454
      3 F          61.5690   84.6693   10.4894 F       1  UNL1       -0.2040
      4 C          60.8756   87.1524   10.1681 C.ar    1  UNL1        0.0312
      5 C          61.0144   88.5986   10.5411 C.ar    1  UNL1        0.0204
      6 C          61.9854   89.0080   11.6086 C.ar    1  UNL1        0.0924
      7 C          62.8176   87.9710   12.3030 C.ar    1  UNL1        0.1598
      8 F          63.7887   88.3803   13.3705 F       1  UNL1       -0.2026
      9 C          63.5111   85.4879   12.6244 C.2     1  UNL1        0.2007
     10 O          64.2484   85.8377   13.8829 O.2     1  UNL1       -0.2866
     11 C          62.1863   82.6416   13.8947 C.2     1  UNL1        0.1360
     12 C          61.7117   81.2618   14.2425 C.2     1  UNL1        0.0837
     13 C          62.0536   80.1044   13.3518 C.2     1  UNL1        0.2385
     14 N          62.8700   80.3266   12.1132 N.2     1  UNL1       -0.0338
     15 C          63.3446   81.7064   11.7654 C.2     1  UNL1        0.3626
     16 N          64.1591   82.2284   10.6191 N.2     1  UNL1       -0.0341
     17 C          64.3206   83.7085   10.8013 C.2     1  UNL1        0.2355
     18 C          63.6059   84.1012   12.0603 C.2     1  UNL1        0.0823
     19 C          63.0027   82.8639   12.6561 C.3     1  UNL1        0.1973
     20 C          62.6551   84.0603   16.0201 C.3     1  UNL1        0.2520
     21 O          61.8444   83.7991   14.7854 O.2     1  UNL1       -0.4746
     22 N          62.1242   90.4542   11.9816 N.pl3   1  UNL1       -0.2127
     23 H          61.3304   91.0363   11.9997 H       1  UNL1        0.1738
     24 S          63.4724   91.0135   12.3272 S.O2    1  UNL1        0.0759
     25 O          63.9042   90.8550   10.8995 O.2     1  UNL1       -0.1499
     26 O          63.0407   91.1720   13.7550 O.2     1  UNL1       -0.1499
     27 C          64.8206   91.5728   12.6729 C.ar    1  UNL1        0.1547
     28 C          65.5517   91.0736   13.8838 C.ar    1  UNL1        0.0521
     29 C          66.8999   91.6329   14.2296 C.ar    1  UNL1        0.1416
     30 F          67.6309   91.1336   15.4405 F       1  UNL1       -0.2041
     31 C          67.5171   92.6914   13.3644 C.ar    1  UNL1        0.0320
     32 C          66.7860   93.1907   12.1535 C.ar    1  UNL1        0.0333
     33 C          65.4378   92.6314   11.8077 C.ar    1  UNL1        0.1590
     34 F          64.7068   93.1307   10.5968 F       1  UNL1       -0.2027
@<TRIPOS>BOND
     1    20    21    1
     2    21    11    1
     3    11    12    2
     4    12    13    1
     5    13    14    2
     6    14    15    1
     7    15    16    2
     8    16    17    1
     9    17    18    2
    10    18     9    1
    11     9    10    2
    12     9     1    1
    13     1     2   ar
    14     2     3    1
    15     2     4   ar
    16     4     5   ar
    17     5     6   ar
    18     6    22    1
    19    22    24    1
    20    24    25    2
    21    24    26    2
    22    24    27    1
    23    27    28   ar
    24    28    29   ar
    25    29    30    1
    26    29    31   ar
    27    31    32   ar
    28    32    33   ar
    29    33    34    1
    30     6     7   ar
    31     7     8    1
    32    18    19    1
    33    19    11    1
    34    19    15    1
    35     7     1   ar
    36    33    27   ar
    37    22    23    1
@<TRIPOS>MOLECULE
*****
 34 37 0 0 0
SMALL
GASTEIGER

@<TRIPOS>ATOM
      1 C          62.6383   86.5208   11.9196 C.ar    1  UNL1        0.0949
      2 C          61.6379   86.0839   10.8908 C.ar    1  UNL1        0.1454
      3 F          61.5043   84.6305   10.5445 F       1  UNL1       -0.2040
      4 C          60.7713   87.1003   10.2084 C.ar    1  UNL1        0.0312
      5 C          60.9049   88.5536   10.5547 C.ar    1  UNL1        0.0204
      6 C          61.9052   88.9906   11.5835 C.ar    1  UNL1        0.0924
      7 C          62.7719   87.9742   12.2659 C.ar    1  UNL1        0.1598
      8 F          63.7723   88.4110   13.2947 F       1  UNL1       -0.2026
      9 C          63.5050   85.5044   12.6021 C.2     1  UNL1        0.2007
     10 O          64.2681   85.8783   13.8381 O.2     1  UNL1       -0.2866
     11 C          62.1894   82.6610   13.8884 C.2     1  UNL1        0.1360
     12 C          61.7203   81.2815   14.2445 C.2     1  UNL1        0.0837
     13 C          62.0710   80.1193   13.3635 C.2     1  UNL1        0.2385
     14 N          62.8908   80.3365   12.1264 N.2     1  UNL1       -0.0338
     15 C          63.3599   81.7160   11.7702 C.2     1  UNL1        0.3626
     16 N          64.1760   82.2336   10.6230 N.2     1  UNL1       -0.0341
     17 C          64.3298   83.7157   10.7950 C.2     1  UNL1        0.2355
     18 C          63.6086   84.1141   12.0485 C.2     1  UNL1        0.0823
     19 C          63.0092   82.8782   12.6512 C.3     1  UNL1        0.1973
     20 C          62.6388   84.0928   16.0092 C.3     1  UNL1        0.2520
     21 O          61.8387   83.8233   14.7694 O.2     1  UNL1       -0.4746
     22 N          62.0388   90.4439   11.9299 N.pl3   1  UNL1       -0.2127
     23 H          61.2515   90.9527   12.2306 H       1  UNL1        0.1738
     24 S          63.3721   91.1221   11.8180 S.O2    1  UNL1        0.0759
     25 O          63.4240   90.7791   10.3586 O.2     1  UNL1       -0.1499
     26 O          63.3201   91.4650   13.2773 O.2     1  UNL1       -0.1499
     27 C          64.7053   91.8002   11.7062 C.ar    1  UNL1        0.1547
     28 C          65.0037   92.6782   10.5271 C.ar    1  UNL1        0.0521
     29 C          66.3369   93.3564   10.4152 C.ar    1  UNL1        0.1416
     30 F          66.6352   94.2344    9.2361 F       1  UNL1       -0.2041
     31 C          67.3718   93.1567   11.4824 C.ar    1  UNL1        0.0320
     32 C          67.0735   92.2787   12.6615 C.ar    1  UNL1        0.0333
     33 C          65.7403   91.6005   12.7734 C.ar    1  UNL1        0.1590
     34 F          65.4420   90.7225   13.9525 F       1  UNL1       -0.2027
@<TRIPOS>BOND
     1    20    21    1
     2    21    11    1
     3    11    12    2
     4    12    13    1
     5    13    14    2
     6    14    15    1
     7    15    16    2
     8    16    17    1
     9    17    18    2
    10    18     9    1
    11     9    10    2
    12     9     1    1
    13     1     2   ar
    14     2     3    1
    15     2     4   ar
    16     4     5   ar
    17     5     6   ar
    18     6    22    1
    19    22    24    1
    20    24    25    2
    21    24    26    2
    22    24    27    1
    23    27    28   ar
    24    28    29   ar
    25    29    30    1
    26    29    31   ar
    27    31    32   ar
    28    32    33   ar
    29    33    34    1
    30     6     7   ar
    31     7     8    1
    32    18    19    1
    33    19    11    1
    34    19    15    1
    35     7     1   ar
    36    33    27   ar
    37    22    23    1
@<TRIPOS>MOLECULE
*****
 34 37 0 0 0
SMALL
GASTEIGER

@<TRIPOS>ATOM
      1 C          61.7208   89.1776   10.1796 C.ar    1  UNL1        0.0949
      2 C          60.4482   89.3950    9.4159 C.ar    1  UNL1        0.1454
      3 F          59.9003   90.7815    9.2506 F       1  UNL1       -0.2040
      4 C          59.7237   88.2259    8.8175 C.ar    1  UNL1        0.0312
      5 C          60.2716   86.8394    8.9828 C.ar    1  UNL1        0.0204
      6 C          61.5442   86.6220    9.7465 C.ar    1  UNL1        0.0924
      7 C          62.2688   87.7911   10.3449 C.ar    1  UNL1        0.1598
      8 F          63.5414   87.5738   11.1086 F       1  UNL1       -0.2026
      9 C          62.4455   90.3468   10.7781 C.2     1  UNL1        0.2007
     10 O          62.8556   91.4991    9.9099 O.2     1  UNL1       -0.2866
     11 C          64.9973   91.9439   12.3297 C.2     1  UNL1        0.1360
     12 C          66.0240   92.5457   13.2428 C.2     1  UNL1        0.0837
     13 C          65.9569   92.2893   14.7192 C.2     1  UNL1        0.2385
     14 N          64.8632   91.4312   15.2825 N.2     1  UNL1       -0.0338
     15 C          63.8365   90.8294   14.3694 C.2     1  UNL1        0.3626
     16 N          62.6515   89.9486   14.6335 N.2     1  UNL1       -0.0341
     17 C          61.9861   89.6606   13.3203 C.2     1  UNL1        0.2355
     18 C          62.7600   90.3634   12.2446 C.2     1  UNL1        0.0823
     19 C          63.9036   91.0858   12.8929 C.3     1  UNL1        0.1973
     20 C          66.0150   93.2270   10.3127 C.3     1  UNL1        0.2520
     21 O          65.0644   92.2003   10.8532 O.2     1  UNL1       -0.4746
     22 N          62.0922   85.2355    9.9117 N.pl3   1  UNL1       -0.2127
     23 H          62.1549   84.6350    9.1341 H       1  UNL1        0.1738
     24 S          62.5447   84.7639   11.2618 S.O2    1  UNL1        0.0759
     25 O          61.4681   85.5837   11.9090 O.2     1  UNL1       -0.1499
     26 O          63.6213   83.9441   10.6146 O.2     1  UNL1       -0.1499
     27 C          62.9972   84.2922   12.6119 C.ar    1  UNL1        0.1547
     28 C          63.6680   85.2474   13.5540 C.ar    1  UNL1        0.0521
     29 C          64.1206   84.7759   14.9041 C.ar    1  UNL1        0.1416
     30 F          64.7914   85.7311   15.8462 F       1  UNL1       -0.2041
     31 C          63.9024   83.3490   15.3121 C.ar    1  UNL1        0.0320
     32 C          63.2317   82.3938   14.3700 C.ar    1  UNL1        0.0333
     33 C          62.7791   82.8654   13.0199 C.ar    1  UNL1        0.1590
     34 F          62.1083   81.9101   12.0778 F       1  UNL1       -0.2027
@<TRIPOS>BOND
     1    20    21    1
     2    21    11    1
     3    11    12    2
     4    12    13    1
     5    13    14    2
     6    14    15    1
     7    15    16    2
     8    16    17    1
     9    17    18    2
    10    18     9    1
    11     9    10    2
    12     9     1    1
    13     1     2   ar
    14     2     3    1
    15     2     4   ar
    16     4     5   ar
    17     5     6   ar
    18     6    22    1
    19    22    24    1
    20    24    25    2
    21    24    26    2
    22    24    27    1
    23    27    28   ar
    24    28    29   ar
    25    29    30    1
    26    29    31   ar
    27    31    32   ar
    28    32    33   ar
    29    33    34    1
    30     6     7   ar
    31     7     8    1
    32    18    19    1
    33    19    11    1
    34    19    15    1
    35     7     1   ar
    36    33    27   ar
    37    22    23    1
@<TRIPOS>MOLECULE
*****
 34 37 0 0 0
SMALL
GASTEIGER

@<TRIPOS>ATOM
      1 C          62.8679   88.9213   11.8573 C.ar    1  UNL1        0.0949
      2 C          61.8952   88.5770   10.7686 C.ar    1  UNL1        0.1454
      3 F          61.2976   89.6641    9.9253 F       1  UNL1       -0.2040
      4 C          61.5203   87.1455   10.5231 C.ar    1  UNL1        0.0312
      5 C          62.1179   86.0584   11.3664 C.ar    1  UNL1        0.0204
      6 C          63.0905   86.4028   12.4552 C.ar    1  UNL1        0.0924
      7 C          63.4655   87.8342   12.7006 C.ar    1  UNL1        0.1598
      8 F          64.4381   88.1787   13.7894 F       1  UNL1       -0.2026
      9 C          63.2429   90.3529   12.1029 C.2     1  UNL1        0.2007
     10 O          63.1451   91.3550   10.9911 O.2     1  UNL1       -0.2866
     11 C          65.9352   92.2682   12.8466 C.2     1  UNL1        0.1360
     12 C          67.0503   93.0826   13.4325 C.2     1  UNL1        0.0837
     13 C          67.1473   93.2621   14.9185 C.2     1  UNL1        0.2385
     14 N          66.1292   92.6272   15.8187 N.2     1  UNL1       -0.0338
     15 C          65.0141   91.8128   15.2328 C.2     1  UNL1        0.3626
     16 N          63.8727   91.0725   15.8646 N.2     1  UNL1       -0.0341
     17 C          63.0703   90.4354   14.7690 C.2     1  UNL1        0.2355
     18 C          63.7158   90.7821   13.4601 C.2     1  UNL1        0.0823
     19 C          64.9171   91.6334   13.7468 C.3     1  UNL1        0.1973
     20 C          66.6603   92.9477   10.4461 C.3     1  UNL1        0.2520
     21 O          65.8382   92.0888   11.3605 O.2     1  UNL1       -0.4746
     22 N          63.6881   85.3157   13.2984 N.pl3   1  UNL1       -0.2127
     23 H          64.2876   85.5451   14.0449 H       1  UNL1        0.1738
     24 S          63.3723   83.8791   13.0043 S.O2    1  UNL1        0.0759
     25 O          64.6396   83.7631   12.2102 O.2     1  UNL1       -0.1499
     26 O          62.1051   83.9951   13.7984 O.2     1  UNL1       -0.1499
     27 C          63.0565   82.4426   12.7102 C.ar    1  UNL1        0.1547
     28 C          63.2158   81.9096   11.3172 C.ar    1  UNL1        0.0521
     29 C          62.9000   80.4730   11.0230 C.ar    1  UNL1        0.1416
     30 F          63.0593   79.9401    9.6299 F       1  UNL1       -0.2041
     31 C          62.4247   79.5694   12.1219 C.ar    1  UNL1        0.0320
     32 C          62.2654   80.1024   13.5150 C.ar    1  UNL1        0.0333
     33 C          62.5812   81.5389   13.8091 C.ar    1  UNL1        0.1590
     34 F          62.4219   82.0718   15.2022 F       1  UNL1       -0.2027
@<TRIPOS>BOND
     1    20    21    1
     2    21    11    1
     3    11    12    2
     4    12    13    1
     5    13    14    2
     6    14    15    1
     7    15    16    2
     8    16    17    1
     9    17    18    2
    10    18     9    1
    11     9    10    2
    12     9     1    1
    13     1     2   ar
    14     2     3    1
    15     2     4   ar
    16     4     5   ar
    17     5     6   ar
    18     6    22    1
    19    22    24    1
    20    24    25    2
    21    24    26    2
    22    24    27    1
    23    27    28   ar
    24    28    29   ar
    25    29    30    1
    26    29    31   ar
    27    31    32   ar
    28    32    33   ar
    29    33    34    1
    30     6     7   ar
    31     7     8    1
    32    18    19    1
    33    19    11    1
    34    19    15    1
    35     7     1   ar
    36    33    27   ar
    37    22    23    1
@<TRIPOS>MOLECULE
*****
 34 37 0 0 0
SMALL
GASTEIGER

@<TRIPOS>ATOM
      1 C          62.8013   88.3387   12.2701 C.ar    1  UNL1        0.0949
      2 C          63.6944   87.8434   13.3687 C.ar    1  UNL1        0.1454
      3 F          63.6757   86.3939   13.7545 F       1  UNL1       -0.2040
      4 C          64.6063   88.7975   14.0815 C.ar    1  UNL1        0.0312
      5 C          64.6251   90.2469   13.6957 C.ar    1  UNL1        0.0204
      6 C          63.7320   90.7422   12.5971 C.ar    1  UNL1        0.0924
      7 C          62.8201   89.7881   11.8844 C.ar    1  UNL1        0.1598
      8 F          61.9268   90.2834   10.7857 F       1  UNL1       -0.2026
      9 C          61.8893   87.3846   11.5573 C.2     1  UNL1        0.2007
     10 O          60.4096   87.4416   11.7960 O.2     1  UNL1       -0.2866
     11 C          62.6662   84.1503   12.1947 C.2     1  UNL1        0.1360
     12 C          63.0857   82.7104   12.2178 C.2     1  UNL1        0.0837
     13 C          63.6269   82.0669   10.9756 C.2     1  UNL1        0.2385
     14 N          63.7486   82.8632    9.7104 N.2     1  UNL1       -0.0338
     15 C          63.3291   84.3032    9.6873 C.2     1  UNL1        0.3626
     16 N          63.3328   85.3323    8.5960 N.2     1  UNL1       -0.0341
     17 C          62.7939   86.6119    9.1636 C.2     1  UNL1        0.2355
     18 C          62.4571   86.3736   10.6058 C.2     1  UNL1        0.0823
     19 C          62.7879   84.9467   10.9294 C.3     1  UNL1        0.1973
     20 C          62.1113   84.0342   14.7301 C.3     1  UNL1        0.2520
     21 O          62.1250   84.7939   13.4368 O.2     1  UNL1       -0.4746
     22 N          63.7507   92.1916   12.2113 N.pl3   1  UNL1       -0.2127
     23 H          63.0172   92.7853   12.4919 H       1  UNL1        0.1738
     24 S          64.8872   92.7366   11.3980 S.O2    1  UNL1        0.0759
     25 O          65.5299   93.2613   12.6477 O.2     1  UNL1       -0.1499
     26 O          64.2445   92.2119   10.1484 O.2     1  UNL1       -0.1499
     27 C          66.0236   93.2815   10.5847 C.ar    1  UNL1        0.1547
     28 C          67.1526   92.3822   10.1764 C.ar    1  UNL1        0.0521
     29 C          68.2890   92.9270    9.3630 C.ar    1  UNL1        0.1416
     30 F          69.4179   92.0276    8.9547 F       1  UNL1       -0.2041
     31 C          68.2966   94.3712    8.9579 C.ar    1  UNL1        0.0320
     32 C          67.1676   95.2706    9.3662 C.ar    1  UNL1        0.0333
     33 C          66.0312   94.7257   10.1796 C.ar    1  UNL1        0.1590
     34 F          64.9023   95.6251   10.5878 F       1  UNL1       -0.2027
@<TRIPOS>BOND
     1    20    21    1
     2    21    11    1
     3    11    12    2
     4    12    13    1
     5    13    14    2
     6    14    15    1
     7    15    16    2
     8    16    17    1
     9    17    18    2
    10    18     9    1
    11     9    10    2
    12     9     1    1
    13     1     2   ar
    14     2     3    1
    15     2     4   ar
    16     4     5   ar
    17     5     6   ar
    18     6    22    1
    19    22    24    1
    20    24    25    2
    21    24    26    2
    22    24    27    1
    23    27    28   ar
    24    28    29   ar
    25    29    30    1
    26    29    31   ar
    27    31    32   ar
    28    32    33   ar
    29    33    34    1
    30     6     7   ar
    31     7     8    1
    32    18    19    1
    33    19    11    1
    34    19    15    1
    35     7     1   ar
    36    33    27   ar
    37    22    23    1
@<TRIPOS>MOLECULE
*****
 34 37 0 0 0
SMALL
GASTEIGER

@<TRIPOS>ATOM
      1 C          63.3298   87.9846   12.7220 C.ar    1  UNL1        0.0949
      2 C          64.0443   87.8231   14.0310 C.ar    1  UNL1        0.1454
      3 F          64.1648   86.4654   14.6572 F       1  UNL1       -0.2040
      4 C          64.6383   89.0194   14.7136 C.ar    1  UNL1        0.0312
      5 C          64.5178   90.3771   14.0874 C.ar    1  UNL1        0.0204
      6 C          63.8033   90.5385   12.7784 C.ar    1  UNL1        0.0924
      7 C          63.2093   89.3422   12.0958 C.ar    1  UNL1        0.1598
      8 F          62.4947   89.5036   10.7868 F       1  UNL1       -0.2026
      9 C          62.7357   86.7882   12.0393 C.2     1  UNL1        0.2007
     10 O          63.2009   85.4094   12.4029 O.2     1  UNL1       -0.2866
     11 C          62.5809   85.3490    8.9774 C.2     1  UNL1        0.1360
     12 C          62.2830   84.8515    7.5941 C.2     1  UNL1        0.0837
     13 C          61.0497   85.3176    6.8788 C.2     1  UNL1        0.2385
     14 N          60.1143   86.2813    7.5468 N.2     1  UNL1       -0.0338
     15 C          60.4122   86.7788    8.9301 C.2     1  UNL1        0.3626
     16 N          59.6811   87.7252    9.8355 N.2     1  UNL1       -0.0341
     17 C          60.4624   87.8440   11.1104 C.2     1  UNL1        0.2355
     18 C          61.6765   86.9709   10.9929 C.2     1  UNL1        0.0823
     19 C          61.6455   86.3126    9.6455 C.3     1  UNL1        0.1973
     20 C          64.0313   83.4188    9.9370 C.3     1  UNL1        0.2520
     21 O          63.8142   84.8828    9.6928 O.2     1  UNL1       -0.4746
     22 N          63.6828   91.8962   12.1522 N.pl3   1  UNL1       -0.2127
     23 H          62.8444   92.4051   12.2379 H       1  UNL1        0.1738
     24 S          64.8396   92.4783   11.3954 S.O2    1  UNL1        0.0759
     25 O          64.2717   91.9421   10.1148 O.2     1  UNL1       -0.1499
     26 O          65.4075   93.0146   12.6759 O.2     1  UNL1       -0.1499
     27 C          65.9964   93.0606   10.6386 C.ar    1  UNL1        0.1547
     28 C          67.1196   92.1746   10.1873 C.ar    1  UNL1        0.0521
     29 C          68.2765   92.7567    9.4306 C.ar    1  UNL1        0.1416
     30 F          69.3996   91.8707    8.9794 F       1  UNL1       -0.2041
     31 C          68.3103   94.2249    9.1251 C.ar    1  UNL1        0.0320
     32 C          67.1872   95.1108    9.5764 C.ar    1  UNL1        0.0333
     33 C          66.0303   94.5287   10.3332 C.ar    1  UNL1        0.1590
     34 F          64.9072   95.4148   10.7844 F       1  UNL1       -0.2027
@<TRIPOS>BOND
     1    20    21    1
     2    21    11    1
     3    11    12    2
     4    12    13    1
     5    13    14    2
     6    14    15    1
     7    15    16    2
     8    16    17    1
     9    17    18    2
    10    18     9    1
    11     9    10    2
    12     9     1    1
    13     1     2   ar
    14     2     3    1
    15     2     4   ar
    16     4     5   ar
    17     5     6   ar
    18     6    22    1
    19    22    24    1
    20    24    25    2
    21    24    26    2
    22    24    27    1
    23    27    28   ar
    24    28    29   ar
    25    29    30    1
    26    29    31   ar
    27    31    32   ar
    28    32    33   ar
    29    33    34    1
    30     6     7   ar
    31     7     8    1
    32    18    19    1
    33    19    11    1
    34    19    15    1
    35     7     1   ar
    36    33    27   ar
    37    22    23    1
@<TRIPOS>MOLECULE
*****
 34 37 0 0 0
SMALL
GASTEIGER

@<TRIPOS>ATOM
      1 C          63.6393   86.8366   13.2378 C.ar    1  UNL1        0.0949
      2 C          62.9255   86.7109   11.9245 C.ar    1  UNL1        0.1454
      3 F          62.7841   85.3671   11.2733 F       1  UNL1       -0.2040
      4 C          62.3532   87.9291   11.2624 C.ar    1  UNL1        0.0312
      5 C          62.4946   89.2730   11.9136 C.ar    1  UNL1        0.0204
      6 C          63.2084   89.3986   13.2269 C.ar    1  UNL1        0.0924
      7 C          63.7807   88.1804   13.8889 C.ar    1  UNL1        0.1598
      8 F          64.4945   88.3060   15.2023 F       1  UNL1       -0.2026
      9 C          64.2117   85.6183   13.8999 C.2     1  UNL1        0.2007
     10 O          65.6984   85.4550   14.0131 O.2     1  UNL1       -0.2866
     11 C          63.5855   82.5486   12.6135 C.2     1  UNL1        0.1360
     12 C          63.1439   81.1603   12.2562 C.2     1  UNL1        0.0837
     13 C          62.1643   80.4362   13.1315 C.2     1  UNL1        0.2385
     14 N          61.6264   81.1004   14.3641 N.2     1  UNL1       -0.0338
     15 C          62.0680   82.4886   14.7214 C.2     1  UNL1        0.3626
     16 N          61.7123   83.3919   15.8650 N.2     1  UNL1       -0.0341
     17 C          62.4721   84.6742   15.6964 C.2     1  UNL1        0.2355
     18 C          63.2973   84.5635   14.4487 C.2     1  UNL1        0.0823
     19 C          63.0475   83.2127   13.8461 C.3     1  UNL1        0.1973
     20 C          64.5570   83.0450   10.2556 C.3     1  UNL1        0.2520
     21 O          64.5650   83.2727   11.7382 O.2     1  UNL1       -0.4746
     22 N          63.3498   90.7425   13.8781 N.pl3   1  UNL1       -0.2127
     23 H          62.5497   91.2830   14.0703 H       1  UNL1        0.1738
     24 S          64.7103   91.2628   14.2365 S.O2    1  UNL1        0.0759
     25 O          64.4183   91.0259   15.6886 O.2     1  UNL1       -0.1499
     26 O          65.0022   91.4996   12.7844 O.2     1  UNL1       -0.1499
     27 C          66.0707   91.7831   14.5948 C.ar    1  UNL1        0.1547
     28 C          67.2323   91.5399   13.6773 C.ar    1  UNL1        0.0521
     29 C          68.5928   92.0602   14.0355 C.ar    1  UNL1        0.1416
     30 F          69.7542   91.8170   13.1180 F       1  UNL1       -0.2041
     31 C          68.7918   92.8236   15.3113 C.ar    1  UNL1        0.0320
     32 C          67.6302   93.0668   16.2288 C.ar    1  UNL1        0.0333
     33 C          66.2697   92.5465   15.8705 C.ar    1  UNL1        0.1590
     34 F          65.1083   92.7897   16.7881 F       1  UNL1       -0.2027
@<TRIPOS>BOND
     1    20    21    1
     2    21    11    1
     3    11    12    2
     4    12    13    1
     5    13    14    2
     6    14    15    1
     7    15    16    2
     8    16    17    1
     9    17    18    2
    10    18     9    1
    11     9    10    2
    12     9     1    1
    13     1     2   ar
    14     2     3    1
    15     2     4   ar
    16     4     5   ar
    17     5     6   ar
    18     6    22    1
    19    22    24    1
    20    24    25    2
    21    24    26    2
    22    24    27    1
    23    27    28   ar
    24    28    29   ar
    25    29    30    1
    26    29    31   ar
    27    31    32   ar
    28    32    33   ar
    29    33    34    1
    30     6     7   ar
    31     7     8    1
    32    18    19    1
    33    19    11    1
    34    19    15    1
    35     7     1   ar
    36    33    27   ar
    37    22    23    1
