@<TRIPOS>MOLECULE
*****
 28 31 0 0 0
SMALL
GASTEIGER

@<TRIPOS>ATOM
      1 C          61.9646   86.2517   11.0536 C.ar    1  UNL1        0.0927
      2 C          60.7536   86.6351   10.2558 C.ar    1  UNL1        0.0573
      3 S          60.4553   88.0792   10.5311 S.2     1  UNL1       -0.0509
      4 C          61.4820   88.5882   11.4991 C.ar    1  UNL1        0.1635
      5 N          62.4148   87.4588   11.8219 N.ar    1  UNL1       -0.2239
      6 C          63.3228   84.3848    9.8619 C.ar    1  UNL1        0.1401
      7 C          63.9700   83.0319    9.8870 C.ar    1  UNL1        0.0375
      8 C          63.9064   82.1929   11.1288 C.ar    1  UNL1        0.0098
      9 C          63.1955   82.7069   12.3455 C.ar    1  UNL1        0.0348
     10 BR         63.1318   81.8679   13.5873 Br      1  UNL1       -0.0490
     11 C          62.5482   84.0598   12.3204 C.ar    1  UNL1        0.0112
     12 C          62.6119   84.8987   11.0786 C.ar    1  UNL1        0.0527
     13 C          62.5194   84.8883    7.4430 C.3     1  UNL1        0.2525
     14 O          63.3865   85.2238    8.6201 O.3     1  UNL1       -0.4714
     15 N          61.5618   89.9820   12.0477 N.pl3   1  UNL1       -0.2927
     16 H          60.7549   90.5451   12.0806 H       1  UNL1        0.1541
     17 C          62.8711   90.5178   12.5464 C.ar    1  UNL1        0.0498
     18 C          63.7031   91.4031   11.6666 C.ar    1  UNL1        0.0161
     19 C          65.0123   91.9389   12.1653 C.ar    1  UNL1        0.0188
     20 C          65.4896   91.5895   13.5437 C.ar    1  UNL1        0.0656
     21 C          64.6576   90.7042   14.4235 C.ar    1  UNL1        0.0188
     22 C          63.3483   90.1684   13.9248 C.ar    1  UNL1        0.0161
     23 N          66.7989   92.1253   14.0425 N.ar    1  UNL1       -0.2868
     24 C          68.1564   91.7701   13.5123 C.ar    1  UNL1        0.1825
     25 N          69.1769   92.5357   14.3011 N.ar    1  UNL1       -0.2280
     26 C          68.4503   93.3640   15.3188 C.ar    1  UNL1        0.0786
     27 C          69.0824   94.2845   16.3204 C.3     1  UNL1        0.0538
     28 C          66.9806   93.1104   15.1589 C.ar    1  UNL1        0.0962
@<TRIPOS>BOND
     1    13    14    1
     2    14     6    1
     3     6     7   ar
     4     7     8   ar
     5     8     9   ar
     6     9    10    1
     7     9    11   ar
     8    11    12   ar
     9    12     1    1
    10     1     2   ar
    11     2     3   ar
    12     3     4   ar
    13     4    15    1
    14    15    17    1
    15    17    18   ar
    16    18    19   ar
    17    19    20   ar
    18    20    23    1
    19    23    24   ar
    20    24    25   ar
    21    25    26   ar
    22    26    27    1
    23    26    28   ar
    24    20    21   ar
    25    21    22   ar
    26     4     5   ar
    27    12     6   ar
    28     5     1   ar
    29    22    17   ar
    30    28    23   ar
    31    15    16    1
@<TRIPOS>MOLECULE
*****
 28 31 0 0 0
SMALL
GASTEIGER

@<TRIPOS>ATOM
      1 C          62.1226   85.9737   11.2476 C.ar    1  UNL1        0.0927
      2 C          60.8929   86.4191   10.5131 C.ar    1  UNL1        0.0573
      3 S          60.6395   87.8558   10.8620 S.2     1  UNL1       -0.0509
      4 C          61.7125   88.2983   11.8122 C.ar    1  UNL1        0.1635
      5 N          62.6291   87.1352   12.0505 N.ar    1  UNL1       -0.2239
      6 C          63.4462   84.1554    9.9468 C.ar    1  UNL1        0.1401
      7 C          64.0613   82.7886    9.8888 C.ar    1  UNL1        0.0375
      8 C          63.9681   81.8733   11.0735 C.ar    1  UNL1        0.0098
      9 C          63.2598   82.3247   12.3162 C.ar    1  UNL1        0.0348
     10 BR         63.1666   81.4094   13.5009 Br      1  UNL1       -0.0490
     11 C          62.6446   83.6915   12.3742 C.ar    1  UNL1        0.0112
     12 C          62.7378   84.6069   11.1896 C.ar    1  UNL1        0.0527
     13 C          62.5456   84.9545    7.6446 C.3     1  UNL1        0.2525
     14 O          63.5393   85.0708    8.7622 O.3     1  UNL1       -0.4714
     15 N          61.8456   89.6642   12.4176 N.pl3   1  UNL1       -0.2927
     16 H          61.2361   89.9448   13.1381 H       1  UNL1        0.1541
     17 C          62.9071   90.6027   11.9253 C.ar    1  UNL1        0.0498
     18 C          63.9606   91.1044   12.8680 C.ar    1  UNL1        0.0161
     19 C          65.0221   92.0428   12.3756 C.ar    1  UNL1        0.0188
     20 C          65.0302   92.4795   10.9406 C.ar    1  UNL1        0.0656
     21 C          63.9769   91.9778    9.9980 C.ar    1  UNL1        0.0188
     22 C          62.9153   91.0393   10.4903 C.ar    1  UNL1        0.0161
     23 N          66.0918   93.4180   10.4482 N.ar    1  UNL1       -0.2868
     24 C          67.5090   93.0520   10.1200 C.ar    1  UNL1        0.1825
     25 N          68.2155   94.2950    9.6666 N.ar    1  UNL1       -0.2280
     26 C          67.2351   95.4292    9.7144 C.ar    1  UNL1        0.0786
     27 C          67.5176   96.8551    9.3442 C.3     1  UNL1        0.0538
     28 C          65.9225   94.8872   10.1975 C.ar    1  UNL1        0.0962
@<TRIPOS>BOND
     1    13    14    1
     2    14     6    1
     3     6     7   ar
     4     7     8   ar
     5     8     9   ar
     6     9    10    1
     7     9    11   ar
     8    11    12   ar
     9    12     1    1
    10     1     2   ar
    11     2     3   ar
    12     3     4   ar
    13     4    15    1
    14    15    17    1
    15    17    18   ar
    16    18    19   ar
    17    19    20   ar
    18    20    23    1
    19    23    24   ar
    20    24    25   ar
    21    25    26   ar
    22    26    27    1
    23    26    28   ar
    24    20    21   ar
    25    21    22   ar
    26     4     5   ar
    27    12     6   ar
    28     5     1   ar
    29    22    17   ar
    30    28    23   ar
    31    15    16    1
@<TRIPOS>MOLECULE
*****
 28 31 0 0 0
SMALL
GASTEIGER

@<TRIPOS>ATOM
      1 C          62.2762   85.5855   11.5424 C.ar    1  UNL1        0.0927
      2 C          61.4711   85.5748   10.2768 C.ar    1  UNL1        0.0573
      3 S          61.2472   86.9975    9.8578 S.2     1  UNL1       -0.0509
      4 C          61.9140   87.8877   10.8644 C.ar    1  UNL1        0.1635
      5 N          62.5500   87.0149   11.9055 N.ar    1  UNL1       -0.2239
      6 C          63.3660   84.5427   13.6578 C.ar    1  UNL1        0.1401
      7 C          63.8181   83.3359   14.4254 C.ar    1  UNL1        0.0375
      8 C          63.6324   81.9651   13.8453 C.ar    1  UNL1        0.0098
      9 C          62.9947   81.8011   12.4976 C.ar    1  UNL1        0.0348
     10 BR         62.8091   80.4304   11.9174 Br      1  UNL1       -0.0490
     11 C          62.5427   83.0079   11.7299 C.ar    1  UNL1        0.0112
     12 C          62.7283   84.3787   12.3101 C.ar    1  UNL1        0.0527
     13 C          64.2251   86.0801   15.5678 C.3     1  UNL1        0.2525
     14 O          63.5517   85.9134   14.2379 O.3     1  UNL1       -0.4714
     15 N          61.9402   89.3871   10.8350 N.pl3   1  UNL1       -0.2927
     16 H          61.2592   89.8814   10.3241 H       1  UNL1        0.1541
     17 C          63.0042   90.1334   11.5840 C.ar    1  UNL1        0.0498
     18 C          63.3336   89.7530   12.9971 C.ar    1  UNL1        0.0161
     19 C          64.3976   90.4993   13.7460 C.ar    1  UNL1        0.0188
     20 C          65.1320   91.6261   13.0820 C.ar    1  UNL1        0.0656
     21 C          64.8026   92.0065   11.6690 C.ar    1  UNL1        0.0188
     22 C          63.7386   91.2602   10.9200 C.ar    1  UNL1        0.0161
     23 N          66.1960   92.3724   13.8310 N.ar    1  UNL1       -0.2868
     24 C          66.4811   93.8415   13.7280 C.ar    1  UNL1        0.1825
     25 N          67.6229   94.1577   14.6478 N.ar    1  UNL1       -0.2280
     26 C          68.0436   92.8841   15.3193 C.ar    1  UNL1        0.0786
     27 C          69.1516   92.7393   16.3200 C.3     1  UNL1        0.0538
     28 C          67.1617   91.7807   14.8145 C.ar    1  UNL1        0.0962
@<TRIPOS>BOND
     1    13    14    1
     2    14     6    1
     3     6     7   ar
     4     7     8   ar
     5     8     9   ar
     6     9    10    1
     7     9    11   ar
     8    11    12   ar
     9    12     1    1
    10     1     2   ar
    11     2     3   ar
    12     3     4   ar
    13     4    15    1
    14    15    17    1
    15    17    18   ar
    16    18    19   ar
    17    19    20   ar
    18    20    23    1
    19    23    24   ar
    20    24    25   ar
    21    25    26   ar
    22    26    27    1
    23    26    28   ar
    24    20    21   ar
    25    21    22   ar
    26     4     5   ar
    27    12     6   ar
    28     5     1   ar
    29    22    17   ar
    30    28    23   ar
    31    15    16    1
@<TRIPOS>MOLECULE
*****
 28 31 0 0 0
SMALL
GASTEIGER

@<TRIPOS>ATOM
      1 C          63.7008   89.6474   14.2750 C.ar    1  UNL1        0.0927
      2 C          63.1540   90.1340   15.5843 C.ar    1  UNL1        0.0573
      3 S          63.1542   88.9812   16.5439 S.2     1  UNL1       -0.0509
      4 C          63.7012   87.7820   15.8278 C.ar    1  UNL1        0.1635
      5 N          64.0390   88.1937   14.4256 N.ar    1  UNL1       -0.2239
      6 C          63.0183   90.2098   11.8321 C.ar    1  UNL1        0.1401
      7 C          63.1959   91.0323   10.5904 C.ar    1  UNL1        0.0375
      8 C          64.2334   92.1149   10.5498 C.ar    1  UNL1        0.0098
      9 C          65.0933   92.3750   11.7509 C.ar    1  UNL1        0.0348
     10 BR         66.1308   93.4575   11.7104 Br      1  UNL1       -0.0490
     11 C          64.9158   91.5525   12.9926 C.ar    1  UNL1        0.0112
     12 C          63.8783   90.4699   13.0332 C.ar    1  UNL1        0.0527
     13 C          62.1664   87.8798   11.0607 C.3     1  UNL1        0.2525
     14 O          61.9809   89.1273   11.8726 O.3     1  UNL1       -0.4714
     15 N          63.8791   86.4117   16.4115 N.pl3   1  UNL1       -0.2927
     16 H          64.1413   86.3087   17.3548 H       1  UNL1        0.1541
     17 C          63.6573   85.1984   15.5579 C.ar    1  UNL1        0.0498
     18 C          62.3991   84.3956   15.7079 C.ar    1  UNL1        0.0161
     19 C          62.1775   83.1823   14.8543 C.ar    1  UNL1        0.0188
     20 C          63.2139   82.7718   13.8507 C.ar    1  UNL1        0.0656
     21 C          64.4720   83.5745   13.7007 C.ar    1  UNL1        0.0188
     22 C          64.6938   84.7879   14.5543 C.ar    1  UNL1        0.0161
     23 N          62.9922   81.5584   12.9970 N.ar    1  UNL1       -0.2868
     24 C          62.5744   80.2024   13.4835 C.ar    1  UNL1        0.1825
     25 N          62.4734   79.2941   12.2942 N.ar    1  UNL1       -0.2280
     26 C          62.8288   80.0885   11.0726 C.ar    1  UNL1        0.0786
     27 C          62.8583   79.5740    9.6639 C.3     1  UNL1        0.0538
     28 C          63.1494   81.4880   11.5069 C.ar    1  UNL1        0.0962
@<TRIPOS>BOND
     1    13    14    1
     2    14     6    1
     3     6     7   ar
     4     7     8   ar
     5     8     9   ar
     6     9    10    1
     7     9    11   ar
     8    11    12   ar
     9    12     1    1
    10     1     2   ar
    11     2     3   ar
    12     3     4   ar
    13     4    15    1
    14    15    17    1
    15    17    18   ar
    16    18    19   ar
    17    19    20   ar
    18    20    23    1
    19    23    24   ar
    20    24    25   ar
    21    25    26   ar
    22    26    27    1
    23    26    28   ar
    24    20    21   ar
    25    21    22   ar
    26     4     5   ar
    27    12     6   ar
    28     5     1   ar
    29    22    17   ar
    30    28    23   ar
    31    15    16    1
@<TRIPOS>MOLECULE
*****
 28 31 0 0 0
SMALL
GASTEIGER

@<TRIPOS>ATOM
      1 C          62.1852   85.5515   11.6552 C.ar    1  UNL1        0.0927
      2 C          61.4394   85.8649   10.3920 C.ar    1  UNL1        0.0573
      3 S          61.1098   87.3282   10.3993 S.2     1  UNL1       -0.0509
      4 C          61.6518   87.9192   11.6670 C.ar    1  UNL1        0.1635
      5 N          62.3165   86.8211   12.4432 N.ar    1  UNL1       -0.2239
      6 C          63.2437   83.9931   13.4444 C.ar    1  UNL1        0.1401
      7 C          63.7664   82.6465   13.8485 C.ar    1  UNL1        0.0375
      8 C          63.7533   81.5116   12.8678 C.ar    1  UNL1        0.0098
      9 C          63.2175   81.7233   11.4829 C.ar    1  UNL1        0.0348
     10 BR         63.2044   80.5884   10.5021 Br      1  UNL1       -0.0490
     11 C          62.6948   83.0699   11.0787 C.ar    1  UNL1        0.0112
     12 C          62.7079   84.2048   12.0594 C.ar    1  UNL1        0.0527
     13 C          64.5597   85.6341   14.9691 C.3     1  UNL1        0.2525
     14 O          63.2567   85.1280   14.4251 O.3     1  UNL1       -0.4714
     15 N          61.5476   89.3559   12.0851 N.pl3   1  UNL1       -0.2927
     16 H          60.7753   89.6597   12.6147 H       1  UNL1        0.1541
     17 C          62.6201   90.3299   11.6963 C.ar    1  UNL1        0.0498
     18 C          63.6255   90.7836   12.7128 C.ar    1  UNL1        0.0161
     19 C          64.6979   91.7576   12.3239 C.ar    1  UNL1        0.0188
     20 C          64.7650   92.2777   10.9186 C.ar    1  UNL1        0.0656
     21 C          63.7596   91.8240    9.9022 C.ar    1  UNL1        0.0188
     22 C          62.6871   90.8501   10.2910 C.ar    1  UNL1        0.0161
     23 N          65.8375   93.2517   10.5297 N.ar    1  UNL1       -0.2868
     24 C          67.2431   92.9052   10.1370 C.ar    1  UNL1        0.1825
     25 N          67.9669   94.1825    9.8299 N.ar    1  UNL1       -0.2280
     26 C          67.0087   95.3186   10.0327 C.ar    1  UNL1        0.0786
     27 C          67.3131   96.7743    9.8373 C.3     1  UNL1        0.0538
     28 C          65.6926   94.7433   10.4652 C.ar    1  UNL1        0.0962
@<TRIPOS>BOND
     1    13    14    1
     2    14     6    1
     3     6     7   ar
     4     7     8   ar
     5     8     9   ar
     6     9    10    1
     7     9    11   ar
     8    11    12   ar
     9    12     1    1
    10     1     2   ar
    11     2     3   ar
    12     3     4   ar
    13     4    15    1
    14    15    17    1
    15    17    18   ar
    16    18    19   ar
    17    19    20   ar
    18    20    23    1
    19    23    24   ar
    20    24    25   ar
    21    25    26   ar
    22    26    27    1
    23    26    28   ar
    24    20    21   ar
    25    21    22   ar
    26     4     5   ar
    27    12     6   ar
    28     5     1   ar
    29    22    17   ar
    30    28    23   ar
    31    15    16    1
@<TRIPOS>MOLECULE
*****
 28 31 0 0 0
SMALL
GASTEIGER

@<TRIPOS>ATOM
      1 C          63.9124   84.9097   13.6707 C.ar    1  UNL1        0.0927
      2 C          65.1116   85.0470   14.5613 C.ar    1  UNL1        0.0573
      3 S          65.1187   86.4399   15.1177 S.2     1  UNL1       -0.0509
      4 C          63.9240   87.1636   14.5710 C.ar    1  UNL1        0.1635
      5 N          63.1784   86.2179   13.6767 N.ar    1  UNL1       -0.2239
      6 C          63.3085   83.7526   11.4243 C.ar    1  UNL1        0.1401
      7 C          62.9128   82.5231   10.6616 C.ar    1  UNL1        0.0375
      8 C          62.7252   81.2212   11.3827 C.ar    1  UNL1        0.0098
      9 C          62.9334   81.1488   12.8663 C.ar    1  UNL1        0.0348
     10 BR         62.7459   79.8469   13.5874 Br      1  UNL1       -0.0490
     11 C          63.3292   82.3783   13.6290 C.ar    1  UNL1        0.0112
     12 C          63.5167   83.6802   12.9080 C.ar    1  UNL1        0.0527
     13 C          62.3478   85.6743    9.9635 C.3     1  UNL1        0.2525
     14 O          63.4960   85.0545   10.7033 O.3     1  UNL1       -0.4714
     15 N          63.5418   88.5837   14.8667 N.pl3   1  UNL1       -0.2927
     16 H          62.8966   88.7807   15.5837 H       1  UNL1        0.1541
     17 C          64.1428   89.7035   14.0699 C.ar    1  UNL1        0.0498
     18 C          63.5192   90.1180   12.7701 C.ar    1  UNL1        0.0161
     19 C          64.1201   91.2377   11.9734 C.ar    1  UNL1        0.0188
     20 C          65.3447   91.9431   12.4764 C.ar    1  UNL1        0.0656
     21 C          65.9682   91.5286   13.7761 C.ar    1  UNL1        0.0188
     22 C          65.3673   90.4088   14.5729 C.ar    1  UNL1        0.0161
     23 N          65.9457   93.0629   11.6796 N.ar    1  UNL1       -0.2868
     24 C          66.1838   94.4619   12.1655 C.ar    1  UNL1        0.1825
     25 N          66.7993   95.2439   11.0432 N.ar    1  UNL1       -0.2280
     26 C          66.9416   94.3283    9.8637 C.ar    1  UNL1        0.0786
     27 C          67.5115   94.6960    8.5258 C.3     1  UNL1        0.0538
     28 C          66.4140   92.9804   10.2570 C.ar    1  UNL1        0.0962
@<TRIPOS>BOND
     1    13    14    1
     2    14     6    1
     3     6     7   ar
     4     7     8   ar
     5     8     9   ar
     6     9    10    1
     7     9    11   ar
     8    11    12   ar
     9    12     1    1
    10     1     2   ar
    11     2     3   ar
    12     3     4   ar
    13     4    15    1
    14    15    17    1
    15    17    18   ar
    16    18    19   ar
    17    19    20   ar
    18    20    23    1
    19    23    24   ar
    20    24    25   ar
    21    25    26   ar
    22    26    27    1
    23    26    28   ar
    24    20    21   ar
    25    21    22   ar
    26     4     5   ar
    27    12     6   ar
    28     5     1   ar
    29    22    17   ar
    30    28    23   ar
    31    15    16    1
@<TRIPOS>MOLECULE
*****
 28 31 0 0 0
SMALL
GASTEIGER

@<TRIPOS>ATOM
      1 C          63.5767   86.4605   14.3752 C.ar    1  UNL1        0.0927
      2 C          63.4217   86.3808   15.8650 C.ar    1  UNL1        0.0573
      3 S          63.6089   87.7597   16.4249 S.2     1  UNL1       -0.0509
      4 C          63.8797   88.6917   15.2811 C.ar    1  UNL1        0.1635
      5 N          63.8598   87.8887   14.0143 N.ar    1  UNL1       -0.2239
      6 C          62.8866   85.5311   12.0492 C.ar    1  UNL1        0.1401
      7 C          62.7777   84.3840   11.0889 C.ar    1  UNL1        0.0375
      8 C          63.2501   83.0192   11.4941 C.ar    1  UNL1        0.0098
      9 C          63.8313   82.8015   12.8596 C.ar    1  UNL1        0.0348
     10 BR         64.3036   81.4367   13.2648 Br      1  UNL1       -0.0490
     11 C          63.9402   83.9486   13.8200 C.ar    1  UNL1        0.0112
     12 C          63.4678   85.3134   13.4148 C.ar    1  UNL1        0.0527
     13 C          61.1560   87.0465   10.8416 C.3     1  UNL1        0.2525
     14 O          62.4143   86.8959   11.6440 O.3     1  UNL1       -0.4714
     15 N          64.1269   90.1675   15.3858 N.pl3   1  UNL1       -0.2927
     16 H          63.8556   90.6558   16.1965 H       1  UNL1        0.1541
     17 C          64.7874   90.8992   14.2552 C.ar    1  UNL1        0.0498
     18 C          64.0269   91.1698   12.9909 C.ar    1  UNL1        0.0161
     19 C          64.6875   91.9016   11.8604 C.ar    1  UNL1        0.0188
     20 C          66.1085   92.3628   11.9942 C.ar    1  UNL1        0.0656
     21 C          66.8690   92.0923   13.2584 C.ar    1  UNL1        0.0188
     22 C          66.2084   91.3605   14.3890 C.ar    1  UNL1        0.0161
     23 N          66.7691   93.0946   10.8636 N.ar    1  UNL1       -0.2868
     24 C          67.7828   92.5239    9.9166 C.ar    1  UNL1        0.1825
     25 N          68.1721   93.6022    8.9493 N.ar    1  UNL1       -0.2280
     26 C          67.3991   94.8393    9.2984 C.ar    1  UNL1        0.0786
     27 C          67.4791   96.1586    8.5890 C.3     1  UNL1        0.0538
     28 C          66.5320   94.5256   10.4815 C.ar    1  UNL1        0.0962
@<TRIPOS>BOND
     1    13    14    1
     2    14     6    1
     3     6     7   ar
     4     7     8   ar
     5     8     9   ar
     6     9    10    1
     7     9    11   ar
     8    11    12   ar
     9    12     1    1
    10     1     2   ar
    11     2     3   ar
    12     3     4   ar
    13     4    15    1
    14    15    17    1
    15    17    18   ar
    16    18    19   ar
    17    19    20   ar
    18    20    23    1
    19    23    24   ar
    20    24    25   ar
    21    25    26   ar
    22    26    27    1
    23    26    28   ar
    24    20    21   ar
    25    21    22   ar
    26     4     5   ar
    27    12     6   ar
    28     5     1   ar
    29    22    17   ar
    30    28    23   ar
    31    15    16    1
@<TRIPOS>MOLECULE
*****
 28 31 0 0 0
SMALL
GASTEIGER

@<TRIPOS>ATOM
      1 C          63.8936   89.6939   14.7200 C.ar    1  UNL1        0.0927
      2 C          63.2856   90.1981   15.9952 C.ar    1  UNL1        0.0573
      3 S          63.1149   89.0303   16.9209 S.2     1  UNL1       -0.0509
      4 C          63.6174   87.8042   16.2178 C.ar    1  UNL1        0.1635
      5 N          64.0987   88.2143   14.8577 N.ar    1  UNL1       -0.2239
      6 C          65.4406   91.4174   13.5426 C.ar    1  UNL1        0.1401
      7 C          65.7834   92.2469   12.3409 C.ar    1  UNL1        0.0375
      8 C          64.9218   92.1826   11.1146 C.ar    1  UNL1        0.0098
      9 C          63.7175   91.2887   11.0902 C.ar    1  UNL1        0.0348
     10 BR         62.8560   91.2244    9.8640 Br      1  UNL1       -0.0490
     11 C          63.3748   90.4592   12.2920 C.ar    1  UNL1        0.0112
     12 C          64.2364   90.5235   13.5182 C.ar    1  UNL1        0.0527
     13 C          67.7569   91.8261   14.6461 C.3     1  UNL1        0.2525
     14 O          66.3022   91.4817   14.7689 O.3     1  UNL1       -0.4714
     15 N          63.6355   86.4123   16.7768 N.pl3   1  UNL1       -0.2927
     16 H          63.7576   86.2717   17.7436 H       1  UNL1        0.1541
     17 C          63.4674   85.2348   15.8629 C.ar    1  UNL1        0.0498
     18 C          62.2339   84.3860   15.9524 C.ar    1  UNL1        0.0161
     19 C          62.0660   83.2085   15.0385 C.ar    1  UNL1        0.0188
     20 C          63.1314   82.8799   14.0351 C.ar    1  UNL1        0.0656
     21 C          64.3648   83.7287   13.9456 C.ar    1  UNL1        0.0188
     22 C          64.5328   84.9062   14.8595 C.ar    1  UNL1        0.0161
     23 N          62.9633   81.7024   13.1211 N.ar    1  UNL1       -0.2868
     24 C          62.5959   80.3088   13.5370 C.ar    1  UNL1        0.1825
     25 N          62.5388   79.4569   12.3038 N.ar    1  UNL1       -0.2280
     26 C          62.8708   80.3239   11.1257 C.ar    1  UNL1        0.0786
     27 C          62.9301   79.8810    9.6938 C.3     1  UNL1        0.0538
     28 C          63.1333   81.7117   11.6308 C.ar    1  UNL1        0.0962
@<TRIPOS>BOND
     1    13    14    1
     2    14     6    1
     3     6     7   ar
     4     7     8   ar
     5     8     9   ar
     6     9    10    1
     7     9    11   ar
     8    11    12   ar
     9    12     1    1
    10     1     2   ar
    11     2     3   ar
    12     3     4   ar
    13     4    15    1
    14    15    17    1
    15    17    18   ar
    16    18    19   ar
    17    19    20   ar
    18    20    23    1
    19    23    24   ar
    20    24    25   ar
    21    25    26   ar
    22    26    27    1
    23    26    28   ar
    24    20    21   ar
    25    21    22   ar
    26     4     5   ar
    27    12     6   ar
    28     5     1   ar
    29    22    17   ar
    30    28    23   ar
    31    15    16    1
@<TRIPOS>MOLECULE
*****
 28 31 0 0 0
SMALL
GASTEIGER

@<TRIPOS>ATOM
      1 C          62.4567   87.1548   11.3207 C.ar    1  UNL1        0.0927
      2 C          62.9960   86.1703   12.3156 C.ar    1  UNL1        0.0573
      3 S          63.7014   86.9393   13.3931 S.2     1  UNL1       -0.0509
      4 C          63.5980   88.3992   13.0641 C.ar    1  UNL1        0.1635
      5 N          62.8288   88.5323   11.7833 N.ar    1  UNL1       -0.2239
      6 C          60.2958   87.3637    9.8934 C.ar    1  UNL1        0.1401
      7 C          59.5206   87.0294    8.6535 C.ar    1  UNL1        0.0375
      8 C          60.1309   86.1519    7.6011 C.ar    1  UNL1        0.0098
      9 C          61.5165   85.6088    7.7885 C.ar    1  UNL1        0.0348
     10 BR         62.1268   84.7313    6.7361 Br      1  UNL1       -0.0490
     11 C          62.2917   85.9431    9.0284 C.ar    1  UNL1        0.0112
     12 C          61.6814   86.8205   10.0808 C.ar    1  UNL1        0.0527
     13 C          59.7923   89.7330   10.8328 C.3     1  UNL1        0.2525
     14 O          59.6855   88.2411   10.9458 O.3     1  UNL1       -0.4714
     15 N          64.1645   89.5277   13.8737 N.pl3   1  UNL1       -0.2927
     16 H          64.2120   89.4546   14.8544 H       1  UNL1        0.1541
     17 C          64.6585   90.7676   13.1893 C.ar    1  UNL1        0.0498
     18 C          65.7394   91.5934   13.8217 C.ar    1  UNL1        0.0161
     19 C          66.2333   92.8333   13.1372 C.ar    1  UNL1        0.0188
     20 C          65.6466   93.2474   11.8203 C.ar    1  UNL1        0.0656
     21 C          64.5658   92.4217   11.1880 C.ar    1  UNL1        0.0188
     22 C          64.0718   91.1818   11.8724 C.ar    1  UNL1        0.0161
     23 N          66.1406   94.4874   11.1358 N.ar    1  UNL1       -0.2868
     24 C          66.2128   95.8586   11.7396 C.ar    1  UNL1        0.1825
     25 N          66.7660   96.7924   10.7042 N.ar    1  UNL1       -0.2280
     26 C          67.0356   95.9984    9.4606 C.ar    1  UNL1        0.0786
     27 C          67.5938   96.5347    8.1758 C.3     1  UNL1        0.0538
     28 C          66.6492   94.5738    9.7273 C.ar    1  UNL1        0.0962
@<TRIPOS>BOND
     1    13    14    1
     2    14     6    1
     3     6     7   ar
     4     7     8   ar
     5     8     9   ar
     6     9    10    1
     7     9    11   ar
     8    11    12   ar
     9    12     1    1
    10     1     2   ar
    11     2     3   ar
    12     3     4   ar
    13     4    15    1
    14    15    17    1
    15    17    18   ar
    16    18    19   ar
    17    19    20   ar
    18    20    23    1
    19    23    24   ar
    20    24    25   ar
    21    25    26   ar
    22    26    27    1
    23    26    28   ar
    24    20    21   ar
    25    21    22   ar
    26     4     5   ar
    27    12     6   ar
    28     5     1   ar
    29    22    17   ar
    30    28    23   ar
    31    15    16    1
