@<TRIPOS>MOLECULE
*****
 34 37 0 0 0
SMALL
GASTEIGER

@<TRIPOS>ATOM
      1 N          63.1985   84.5089   14.5662 N.ar    1  UNL1       -0.2287
      2 C          62.5900   85.2712   15.7059 C.ar    1  UNL1        0.0990
      3 C          63.0675   86.6907   15.6213 C.ar    1  UNL1        0.0338
      4 C          63.9710   86.8057   14.4295 C.ar    1  UNL1        0.0981
      5 N          64.0520   85.4573   13.7774 N.ar    1  UNL1       -0.1680
      6 C          64.4485   88.2251   14.3450 C.3     1  UNL1        0.1414
      7 N          63.8400   88.9875   15.4846 N.am    1  UNL1       -0.2660
      8 C          64.0484   90.4426   15.7830 C.2     1  UNL1        0.2525
      9 O          63.3702   91.0707   16.9644 O.2     1  UNL1       -0.2698
     10 C          62.9865   88.0391   16.2734 C.3     1  UNL1        0.1236
     11 C          60.0535   80.3842   14.2562 C.3     1  UNL1        0.0311
     12 C          61.4176   80.9914   14.1128 C.ar    1  UNL1       -0.0204
     13 C          62.5733   80.1434   13.6709 C.ar    1  UNL1       -0.0042
     14 C          63.9374   80.7505   13.5275 C.ar    1  UNL1        0.0012
     15 C          64.1457   82.2057   13.8259 C.ar    1  UNL1        0.0191
     16 C          62.9901   83.0538   14.2678 C.ar    1  UNL1        0.0825
     17 C          61.6260   82.4466   14.4113 C.ar    1  UNL1        0.0149
     18 C          64.9351   91.2698   14.9001 C.ar    1  UNL1        0.0888
     19 C          66.2613   91.7515   15.4091 C.ar    1  UNL1        0.0259
     20 C          67.1480   92.5788   14.5262 C.ar    1  UNL1        0.1061
     21 C          66.7086   92.9242   13.1343 C.ar    1  UNL1        0.0215
     22 C          65.3823   92.4424   12.6252 C.ar    1  UNL1        0.0384
     23 C          64.4957   91.6152   13.5081 C.ar    1  UNL1        0.1432
     24 S          68.4742   93.0605   15.0353 S.O2    1  UNL1        0.0105
     25 C          69.8004   93.5421   15.5444 C.3     1  UNL1        0.1816
     26 O          69.1656   92.3404   13.9157 O.2     1  UNL1       -0.1686
     27 O          67.7829   93.7806   16.1550 O.2     1  UNL1       -0.1686
     28 O          63.1695   91.1335   12.9991 O.3     1  UNL1       -0.4702
     29 C          63.0472   90.6174   11.5960 C.3     1  UNL1        0.2599
     30 C          63.5153   91.4571   10.4445 C.3     1  UNL1        0.0566
     31 C          62.4569   89.2616   11.3442 C.3     1  UNL1        0.4340
     32 F          61.8665   87.9059   11.0925 F       1  UNL1       -0.1664
     33 F          61.8379   89.2775   12.7105 F       1  UNL1       -0.1664
     34 F          63.0758   89.2458    9.9779 F       1  UNL1       -0.1664
@<TRIPOS>BOND
     1    11    12    1
     2    12    13   ar
     3    13    14   ar
     4    14    15   ar
     5    15    16   ar
     6    16     1    1
     7     1     2   ar
     8     2     3   ar
     9     3     4   ar
    10     4     5   ar
    11     4     6    1
    12     6     7    1
    13     7     8   am
    14     8     9    2
    15     8    18    1
    16    18    19   ar
    17    19    20   ar
    18    20    24    1
    19    24    25    1
    20    24    26    2
    21    24    27    2
    22    20    21   ar
    23    21    22   ar
    24    22    23   ar
    25    23    28    1
    26    28    29    1
    27    29    30    1
    28    29    31    1
    29    31    32    1
    30    31    33    1
    31    31    34    1
    32     7    10    1
    33    16    17   ar
    34    17    12   ar
    35     5     1   ar
    36    23    18   ar
    37    10     3    1
@<TRIPOS>MOLECULE
*****
 34 37 0 0 0
SMALL
GASTEIGER

@<TRIPOS>ATOM
      1 N          63.0817   83.2077   13.6086 N.ar    1  UNL1       -0.2287
      2 C          62.7677   83.6968   14.9914 C.ar    1  UNL1        0.0990
      3 C          63.1044   85.1572   15.0541 C.ar    1  UNL1        0.0338
      4 C          63.6265   85.5706   13.7101 C.ar    1  UNL1        0.0981
      5 N          63.6125   84.3657   12.8167 N.ar    1  UNL1       -0.1680
      6 C          63.9633   87.0310   13.7727 C.3     1  UNL1        0.1414
      7 N          63.6493   87.5202   15.1556 N.am    1  UNL1       -0.2660
      8 C          63.8337   88.9213   15.6582 C.2     1  UNL1        0.2525
      9 O          63.4737   89.2639   17.0735 O.2     1  UNL1       -0.2698
     10 C          63.1184   86.3620   15.9475 C.3     1  UNL1        0.1236
     11 C          62.9992   79.8117    9.6767 C.3     1  UNL1        0.0311
     12 C          62.8560   80.1085   11.1400 C.ar    1  UNL1       -0.0204
     13 C          62.5285   79.0041   12.1007 C.ar    1  UNL1       -0.0042
     14 C          62.3853   79.3008   13.5641 C.ar    1  UNL1        0.0012
     15 C          62.5697   80.7021   14.0667 C.ar    1  UNL1        0.0191
     16 C          62.8973   81.8065   13.1060 C.ar    1  UNL1        0.0825
     17 C          63.0405   81.5097   11.6426 C.ar    1  UNL1        0.0149
     18 C          64.3780   89.9799   14.7456 C.ar    1  UNL1        0.0888
     19 C          65.7335   90.5682   15.0038 C.ar    1  UNL1        0.0259
     20 C          66.2779   91.6269   14.0911 C.ar    1  UNL1        0.1061
     21 C          65.4669   92.0973   12.9203 C.ar    1  UNL1        0.0215
     22 C          64.1114   91.5090   12.6620 C.ar    1  UNL1        0.0384
     23 C          63.5670   90.4504   13.5746 C.ar    1  UNL1        0.1432
     24 S          67.6334   92.2151   14.3495 S.O2    1  UNL1        0.0105
     25 C          68.9888   92.8033   14.6078 C.3     1  UNL1        0.1816
     26 O          67.8821   92.2907   12.8722 O.2     1  UNL1       -0.1686
     27 O          67.3847   92.1395   15.8268 O.2     1  UNL1       -0.1686
     28 O          62.2116   89.8621   13.3164 O.3     1  UNL1       -0.4702
     29 C          61.7415   89.6513   11.9076 C.3     1  UNL1        0.2599
     30 C          62.5614   88.8285   10.9585 C.3     1  UNL1        0.0566
     31 C          60.4515   90.2634   11.4479 C.3     1  UNL1        0.4340
     32 F          59.1616   90.8755   10.9881 F       1  UNL1       -0.1664
     33 F          59.7861   89.8118   12.7141 F       1  UNL1       -0.1664
     34 F          61.1171   90.7150   10.1817 F       1  UNL1       -0.1664
@<TRIPOS>BOND
     1    11    12    1
     2    12    13   ar
     3    13    14   ar
     4    14    15   ar
     5    15    16   ar
     6    16     1    1
     7     1     2   ar
     8     2     3   ar
     9     3     4   ar
    10     4     5   ar
    11     4     6    1
    12     6     7    1
    13     7     8   am
    14     8     9    2
    15     8    18    1
    16    18    19   ar
    17    19    20   ar
    18    20    24    1
    19    24    25    1
    20    24    26    2
    21    24    27    2
    22    20    21   ar
    23    21    22   ar
    24    22    23   ar
    25    23    28    1
    26    28    29    1
    27    29    30    1
    28    29    31    1
    29    31    32    1
    30    31    33    1
    31    31    34    1
    32     7    10    1
    33    16    17   ar
    34    17    12   ar
    35     5     1   ar
    36    23    18   ar
    37    10     3    1
@<TRIPOS>MOLECULE
*****
 34 37 0 0 0
SMALL
GASTEIGER

@<TRIPOS>ATOM
      1 N          63.1116   84.0918   13.9021 N.ar    1  UNL1       -0.2287
      2 C          63.5426   84.9003   15.0897 C.ar    1  UNL1        0.0990
      3 C          63.7406   86.3171   14.6387 C.ar    1  UNL1        0.0338
      4 C          63.4318   86.3843   13.1724 C.ar    1  UNL1        0.0981
      5 N          63.0431   85.0090   12.7171 N.ar    1  UNL1       -0.1680
      6 C          63.6297   87.8012   12.7214 C.3     1  UNL1        0.1414
      7 N          64.0609   88.6097   13.9091 N.am    1  UNL1       -0.2660
      8 C          64.3693   90.0776   13.9114 C.2     1  UNL1        0.2525
      9 O          64.7909   90.7535   15.1824 O.2     1  UNL1       -0.2698
     10 C          64.1293   87.6925   15.0940 C.3     1  UNL1        0.1236
     11 C          59.6717   80.2157   14.2800 C.3     1  UNL1        0.0311
     12 C          61.0832   80.6858   14.0887 C.ar    1  UNL1       -0.0204
     13 C          62.1863   79.6879   13.8951 C.ar    1  UNL1       -0.0042
     14 C          63.5978   80.1580   13.7038 C.ar    1  UNL1        0.0012
     15 C          63.9062   81.6260   13.7061 C.ar    1  UNL1        0.0191
     16 C          62.8031   82.6239   13.8997 C.ar    1  UNL1        0.0825
     17 C          61.3916   82.1538   14.0910 C.ar    1  UNL1        0.0149
     18 C          64.2561   90.8697   12.6427 C.ar    1  UNL1        0.0888
     19 C          65.3814   91.7643   12.2141 C.ar    1  UNL1        0.0259
     20 C          65.2682   92.5565   10.9453 C.ar    1  UNL1        0.1061
     21 C          64.0299   92.4541   10.1052 C.ar    1  UNL1        0.0215
     22 C          62.9046   91.5596   10.5337 C.ar    1  UNL1        0.0384
     23 C          63.0177   90.7674   11.8024 C.ar    1  UNL1        0.1432
     24 S          66.3935   93.4510   10.5169 S.O2    1  UNL1        0.0105
     25 C          67.5189   94.3453   10.0885 C.3     1  UNL1        0.1816
     26 O          67.3116   92.2662   10.4550 O.2     1  UNL1       -0.1686
     27 O          65.4756   94.6357   10.5788 O.2     1  UNL1       -0.1686
     28 O          61.8925   89.8729   12.2309 O.3     1  UNL1       -0.4702
     29 C          60.7244   89.6470   11.3174 C.3     1  UNL1        0.2599
     30 C          59.5081   90.5182   11.4256 C.3     1  UNL1        0.0566
     31 C          60.7726   88.5499   10.2956 C.3     1  UNL1        0.4340
     32 F          60.8207   87.4527    9.2740 F       1  UNL1       -0.1664
     33 F          60.9402   89.5697    9.2085 F       1  UNL1       -0.1664
     34 F          60.6049   87.5300   11.3828 F       1  UNL1       -0.1664
@<TRIPOS>BOND
     1    11    12    1
     2    12    13   ar
     3    13    14   ar
     4    14    15   ar
     5    15    16   ar
     6    16     1    1
     7     1     2   ar
     8     2     3   ar
     9     3     4   ar
    10     4     5   ar
    11     4     6    1
    12     6     7    1
    13     7     8   am
    14     8     9    2
    15     8    18    1
    16    18    19   ar
    17    19    20   ar
    18    20    24    1
    19    24    25    1
    20    24    26    2
    21    24    27    2
    22    20    21   ar
    23    21    22   ar
    24    22    23   ar
    25    23    28    1
    26    28    29    1
    27    29    30    1
    28    29    31    1
    29    31    32    1
    30    31    33    1
    31    31    34    1
    32     7    10    1
    33    16    17   ar
    34    17    12   ar
    35     5     1   ar
    36    23    18   ar
    37    10     3    1
@<TRIPOS>MOLECULE
*****
 34 37 0 0 0
SMALL
GASTEIGER

@<TRIPOS>ATOM
      1 N          59.7000   89.1004    7.2971 N.ar    1  UNL1       -0.2287
      2 C          59.7037   87.6013    7.2472 C.ar    1  UNL1        0.0990
      3 C          60.4761   87.1000    8.4313 C.ar    1  UNL1        0.0338
      4 C          60.9497   88.2894    9.2131 C.ar    1  UNL1        0.0981
      5 N          60.4700   89.5257    8.5121 N.ar    1  UNL1       -0.1680
      6 C          61.7221   87.7881   10.3972 C.3     1  UNL1        0.1414
      7 N          61.7258   86.2889   10.3473 N.am    1  UNL1       -0.2660
      8 C          62.3840   85.3754   11.3383 C.2     1  UNL1        0.2525
      9 O          62.3030   83.8886   11.1569 O.2     1  UNL1       -0.2698
     10 C          60.9557   85.8637    9.1323 C.3     1  UNL1        0.1236
     11 C          60.0566   92.7121    3.5784 C.3     1  UNL1        0.0311
     12 C          59.2200   91.8198    4.4467 C.ar    1  UNL1       -0.0204
     13 C          57.7252   91.8410    4.3240 C.ar    1  UNL1       -0.0042
     14 C          56.8886   90.9487    5.1923 C.ar    1  UNL1        0.0012
     15 C          57.5469   90.0352    6.1833 C.ar    1  UNL1        0.0191
     16 C          59.0417   90.0140    6.3061 C.ar    1  UNL1        0.0825
     17 C          59.8783   90.9063    5.4378 C.ar    1  UNL1        0.0149
     18 C          63.1233   85.9486   12.5109 C.ar    1  UNL1        0.0888
     19 C          63.1571   87.4331   12.7233 C.ar    1  UNL1        0.0259
     20 C          63.8964   88.0064   13.8959 C.ar    1  UNL1        0.1061
     21 C          64.6019   87.0952   14.8560 C.ar    1  UNL1        0.0215
     22 C          64.5682   85.6106   14.6436 C.ar    1  UNL1        0.0384
     23 C          63.8289   85.0374   13.4711 C.ar    1  UNL1        0.1432
     24 S          63.9301   89.4909   14.1082 S.O2    1  UNL1        0.0105
     25 C          63.9638   90.9754   14.3206 C.3     1  UNL1        0.1816
     26 O          63.9439   89.2782   15.5930 O.2     1  UNL1       -0.1686
     27 O          63.9162   89.7037   12.6234 O.2     1  UNL1       -0.1686
     28 O          63.7951   83.5529   13.2586 O.3     1  UNL1       -0.4702
     29 C          62.8377   82.7047   14.0422 C.3     1  UNL1        0.2599
     30 C          62.1292   83.2785   15.2333 C.3     1  UNL1        0.0566
     31 C          62.5888   81.2828   13.6346 C.3     1  UNL1        0.4340
     32 F          62.3397   79.8609   13.2270 F       1  UNL1       -0.1664
     33 F          63.8407   81.3005   12.8085 F       1  UNL1       -0.1664
     34 F          61.3368   81.2652   14.4607 F       1  UNL1       -0.1664
@<TRIPOS>BOND
     1    11    12    1
     2    12    13   ar
     3    13    14   ar
     4    14    15   ar
     5    15    16   ar
     6    16     1    1
     7     1     2   ar
     8     2     3   ar
     9     3     4   ar
    10     4     5   ar
    11     4     6    1
    12     6     7    1
    13     7     8   am
    14     8     9    2
    15     8    18    1
    16    18    19   ar
    17    19    20   ar
    18    20    24    1
    19    24    25    1
    20    24    26    2
    21    24    27    2
    22    20    21   ar
    23    21    22   ar
    24    22    23   ar
    25    23    28    1
    26    28    29    1
    27    29    30    1
    28    29    31    1
    29    31    32    1
    30    31    33    1
    31    31    34    1
    32     7    10    1
    33    16    17   ar
    34    17    12   ar
    35     5     1   ar
    36    23    18   ar
    37    10     3    1
@<TRIPOS>MOLECULE
*****
 34 37 0 0 0
SMALL
GASTEIGER

@<TRIPOS>ATOM
      1 N          60.1314   88.9443    8.1661 N.ar    1  UNL1       -0.2287
      2 C          61.1301   89.5609    9.1001 C.ar    1  UNL1        0.0990
      3 C          61.5946   88.4971   10.0501 C.ar    1  UNL1        0.0338
      4 C          60.8830   87.2230    9.7032 C.ar    1  UNL1        0.0981
      5 N          59.9787   87.4994    8.5388 N.ar    1  UNL1       -0.1680
      6 C          61.3475   86.1592   10.6533 C.3     1  UNL1        0.1414
      7 N          62.3462   86.7758   11.5873 N.am    1  UNL1       -0.2660
      8 C          63.0658   86.0713   12.6989 C.2     1  UNL1        0.2525
      9 O          64.0420   86.8223   13.5552 O.2     1  UNL1       -0.2698
     10 C          62.4989   88.2207   11.2145 C.3     1  UNL1        0.1236
     11 C          60.2103   92.1307    4.0624 C.3     1  UNL1        0.0311
     12 C          59.4512   91.2420    5.0026 C.ar    1  UNL1       -0.0204
     13 C          57.9724   91.0579    4.8312 C.ar    1  UNL1       -0.0042
     14 C          57.2133   90.1693    5.7714 C.ar    1  UNL1        0.0012
     15 C          57.9331   89.4648    6.8831 C.ar    1  UNL1        0.0191
     16 C          59.4118   89.6488    7.0545 C.ar    1  UNL1        0.0825
     17 C          60.1709   90.5375    6.1142 C.ar    1  UNL1        0.0149
     18 C          62.8094   84.6156   12.9543 C.ar    1  UNL1        0.0888
     19 C          63.0389   83.6111   11.8643 C.ar    1  UNL1        0.0259
     20 C          62.7825   82.1553   12.1197 C.ar    1  UNL1        0.1061
     21 C          62.2965   81.7042   13.4651 C.ar    1  UNL1        0.0215
     22 C          62.0669   82.7087   14.5552 C.ar    1  UNL1        0.0384
     23 C          62.3234   84.1644   14.2998 C.ar    1  UNL1        0.1432
     24 S          63.0121   81.1509   11.0296 S.O2    1  UNL1        0.0105
     25 C          63.2417   80.1463    9.9395 C.3     1  UNL1        0.1816
     26 O          62.5595   80.0529   11.9460 O.2     1  UNL1       -0.1686
     27 O          63.4647   82.2487   10.1132 O.2     1  UNL1       -0.1686
     28 O          62.0938   85.1689   15.3898 O.3     1  UNL1       -0.4702
     29 C          63.2445   85.6433   16.2271 C.3     1  UNL1        0.2599
     30 C          64.5850   84.9818   16.1033 C.3     1  UNL1        0.0566
     31 C          63.0546   86.7792   17.1882 C.3     1  UNL1        0.4340
     32 F          62.8647   87.9151   18.1492 F       1  UNL1       -0.1664
     33 F          62.3687   85.8525   18.1478 F       1  UNL1       -0.1664
     34 F          63.7405   87.7058   16.2285 F       1  UNL1       -0.1664
@<TRIPOS>BOND
     1    11    12    1
     2    12    13   ar
     3    13    14   ar
     4    14    15   ar
     5    15    16   ar
     6    16     1    1
     7     1     2   ar
     8     2     3   ar
     9     3     4   ar
    10     4     5   ar
    11     4     6    1
    12     6     7    1
    13     7     8   am
    14     8     9    2
    15     8    18    1
    16    18    19   ar
    17    19    20   ar
    18    20    24    1
    19    24    25    1
    20    24    26    2
    21    24    27    2
    22    20    21   ar
    23    21    22   ar
    24    22    23   ar
    25    23    28    1
    26    28    29    1
    27    29    30    1
    28    29    31    1
    29    31    32    1
    30    31    33    1
    31    31    34    1
    32     7    10    1
    33    16    17   ar
    34    17    12   ar
    35     5     1   ar
    36    23    18   ar
    37    10     3    1
