@<TRIPOS>MOLECULE
*****
 29 31 0 0 0
SMALL
GASTEIGER

@<TRIPOS>ATOM
      1 C          63.5883   87.3069   13.4044 C.ar    1  UNL1        0.0000
      2 C          62.7753   86.5893   12.3681 C.ar    1  UNL1       -0.0002
      3 C          62.4962   85.1229   12.5168 C.ar    1  UNL1       -0.0017
      4 C          63.0301   84.3743   13.7020 C.ar    1  UNL1        0.0070
      5 C          63.8431   85.0920   14.7383 C.ar    1  UNL1       -0.0017
      6 C          64.1222   86.5583   14.5896 C.ar    1  UNL1       -0.0002
      7 C          64.9535   90.9586   14.1469 C.ar    1  UNL1        0.0503
      8 C          64.4255   91.7058   12.9583 C.ar    1  UNL1        0.0147
      9 C          63.6184   90.9867   11.9184 C.ar    1  UNL1        0.0013
     10 C          63.3393   89.5204   12.0671 C.ar    1  UNL1        0.0001
     11 C          63.8674   88.7732   13.2557 C.ar    1  UNL1        0.0012
     12 C          64.6745   89.4923   14.2956 C.ar    1  UNL1        0.0147
     13 C          67.9987   92.7527   15.9519 C.3     1  UNL1        0.0949
     14 C          67.1916   92.0336   14.9120 C.2     1  UNL1        0.2266
     15 O          67.8156   91.6703   13.5971 O.2     1  UNL1       -0.2748
     16 N          65.7607   91.6777   15.1869 N.am    1  UNL1       -0.2839
     17 H          65.3512   91.9161   16.0499 H       1  UNL1        0.1549
     18 C          62.7511   82.9081   13.8507 C.3     1  UNL1        0.1410
     19 O          62.1618   83.1579   15.2073 O.3     1  UNL1       -0.3771
     20 H          62.2049   84.1057   15.4090 H       1  UNL1        0.2112
     21 C          63.3404   82.6583   12.4942 C.ar    1  UNL1        0.0825
     22 C          64.6924   83.1068   12.0240 C.ar    1  UNL1        0.1157
     23 N          64.8688   82.6418   10.6088 N.ar    1  UNL1       -0.2228
     24 C          63.6258   81.9058   10.2043 C.ar    1  UNL1        0.1749
     25 N          62.6813   81.9160   11.3696 N.ar    1  UNL1       -0.3361
     26 H          61.7859   81.5073   11.3922 H       1  UNL1        0.1673
     27 C          62.4721   81.4418   13.9995 C.3     1  UNL1        0.0340
     28 C          61.0580   80.9557   14.1179 C.3     1  UNL1        0.0031
     29 C          63.6072   80.4616   14.0299 C.3     1  UNL1        0.0031
@<TRIPOS>BOND
     1    13    14    1
     2    14    15    2
     3    14    16   am
     4    16     7    1
     5     7     8   ar
     6     8     9   ar
     7     9    10   ar
     8    10    11   ar
     9    11     1    1
    10     1     2   ar
    11     2     3   ar
    12     3     4   ar
    13     4    18    1
    14    18    19    1
    15    18    21    1
    16    21    22   ar
    17    22    23   ar
    18    23    24   ar
    19    24    25   ar
    20    18    27    1
    21    27    28    1
    22    27    29    1
    23     4     5   ar
    24     5     6   ar
    25    11    12   ar
    26    12     7   ar
    27     6     1   ar
    28    25    21   ar
    29    16    17    1
    30    19    20    1
    31    25    26    1
@<TRIPOS>MOLECULE
*****
 29 31 0 0 0
SMALL
GASTEIGER

@<TRIPOS>ATOM
      1 C          61.9229   88.8910   10.4242 C.ar    1  UNL1        0.0000
      2 C          62.1486   90.3735   10.4606 C.ar    1  UNL1       -0.0002
      3 C          63.0016   90.9761   11.5373 C.ar    1  UNL1       -0.0017
      4 C          63.6290   90.0961   12.5776 C.ar    1  UNL1        0.0070
      5 C          63.4033   88.6136   12.5411 C.ar    1  UNL1       -0.0017
      6 C          62.5503   88.0111   11.4645 C.ar    1  UNL1       -0.0002
      7 C          59.2708   88.5506    7.4916 C.ar    1  UNL1        0.0503
      8 C          59.3639   87.0834    7.1941 C.ar    1  UNL1        0.0147
      9 C          60.3100   86.2186    7.9733 C.ar    1  UNL1        0.0013
     10 C          61.1630   86.8212    9.0500 C.ar    1  UNL1        0.0001
     11 C          61.0699   88.2884    9.3475 C.ar    1  UNL1        0.0012
     12 C          60.1238   89.1531    8.5682 C.ar    1  UNL1        0.0147
     13 C          57.9108   91.2556    4.9257 C.3     1  UNL1        0.0949
     14 C          58.8569   90.3908    5.7049 C.2     1  UNL1        0.2266
     15 O          60.3354   90.5018    5.4767 O.2     1  UNL1       -0.2748
     16 N          58.3247   89.4153    6.7123 N.am    1  UNL1       -0.2839
     17 H          57.3544   89.3425    6.8621 H       1  UNL1        0.1549
     18 C          64.4820   90.6987   13.6543 C.3     1  UNL1        0.1410
     19 O          65.0367   91.6806   12.6653 O.3     1  UNL1       -0.3771
     20 H          64.6362   91.5249   11.7957 H       1  UNL1        0.2112
     21 C          63.9273   89.7167   14.6432 C.ar    1  UNL1        0.0825
     22 C          64.4778   88.3521   14.9344 C.ar    1  UNL1        0.1157
     23 N          63.6153   87.7189   15.9858 N.ar    1  UNL1       -0.2228
     24 C          62.5318   88.6924   16.3445 C.ar    1  UNL1        0.1749
     25 N          62.7246   89.9270   15.5148 N.ar    1  UNL1       -0.3361
     26 H          62.1608   90.7337   15.5381 H       1  UNL1        0.1673
     27 C          65.3350   91.3012   14.7310 C.3     1  UNL1        0.0340
     28 C          64.6943   91.9062   15.9448 C.3     1  UNL1        0.0031
     29 C          66.8287   91.2987   14.5939 C.3     1  UNL1        0.0031
@<TRIPOS>BOND
     1    13    14    1
     2    14    15    2
     3    14    16   am
     4    16     7    1
     5     7     8   ar
     6     8     9   ar
     7     9    10   ar
     8    10    11   ar
     9    11     1    1
    10     1     2   ar
    11     2     3   ar
    12     3     4   ar
    13     4    18    1
    14    18    19    1
    15    18    21    1
    16    21    22   ar
    17    22    23   ar
    18    23    24   ar
    19    24    25   ar
    20    18    27    1
    21    27    28    1
    22    27    29    1
    23     4     5   ar
    24     5     6   ar
    25    11    12   ar
    26    12     7   ar
    27     6     1   ar
    28    25    21   ar
    29    16    17    1
    30    19    20    1
    31    25    26    1
@<TRIPOS>MOLECULE
*****
 29 31 0 0 0
SMALL
GASTEIGER

@<TRIPOS>ATOM
      1 C          62.5319   89.5534   10.5419 C.ar    1  UNL1        0.0000
      2 C          62.9182   89.0141   11.8873 C.ar    1  UNL1       -0.0002
      3 C          63.7985   89.8217   12.7945 C.ar    1  UNL1       -0.0017
      4 C          64.2926   91.1685   12.3562 C.ar    1  UNL1        0.0070
      5 C          63.9063   91.7077   11.0108 C.ar    1  UNL1       -0.0017
      6 C          63.0260   90.9002   10.1037 C.ar    1  UNL1       -0.0002
      7 C          59.6885   88.6125    7.9381 C.ar    1  UNL1        0.0503
      8 C          59.8910   87.1309    7.8204 C.ar    1  UNL1        0.0147
      9 C          60.9737   86.4568    8.6098 C.ar    1  UNL1        0.0013
     10 C          61.8540   87.2643    9.5170 C.ar    1  UNL1        0.0001
     11 C          61.6516   88.7459    9.6347 C.ar    1  UNL1        0.0012
     12 C          60.5689   89.4200    8.8453 C.ar    1  UNL1        0.0147
     13 C          57.8784   90.8350    5.1933 C.3     1  UNL1        0.0949
     14 C          58.9612   90.1609    5.9828 C.2     1  UNL1        0.2266
     15 O          60.3993   90.3610    5.6063 O.2     1  UNL1       -0.2748
     16 N          58.6058   89.2866    7.1486 N.am    1  UNL1       -0.2839
     17 H          57.6619   89.1553    7.3957 H       1  UNL1        0.1549
     18 C          65.1729   91.9760   13.2634 C.3     1  UNL1        0.1410
     19 O          64.3348   91.5691   14.4389 O.3     1  UNL1       -0.3771
     20 H          63.6174   90.9891   14.1392 H       1  UNL1        0.2112
     21 C          66.0110   92.3829   12.0878 C.ar    1  UNL1        0.0825
     22 C          67.3640   91.8374   11.7386 C.ar    1  UNL1        0.1157
     23 N          67.8325   92.5242   10.4899 N.ar    1  UNL1       -0.2228
     24 C          66.7690   93.4941   10.0675 C.ar    1  UNL1        0.1749
     25 N          65.6433   93.4068   11.0550 N.ar    1  UNL1       -0.3361
     26 H          64.8095   93.9297   11.0297 H       1  UNL1        0.1673
     27 C          66.0532   92.7836   14.1705 C.3     1  UNL1        0.0340
     28 C          66.5204   92.2044   15.4729 C.3     1  UNL1        0.0031
     29 C          66.4664   94.1703   13.7752 C.3     1  UNL1        0.0031
@<TRIPOS>BOND
     1    13    14    1
     2    14    15    2
     3    14    16   am
     4    16     7    1
     5     7     8   ar
     6     8     9   ar
     7     9    10   ar
     8    10    11   ar
     9    11     1    1
    10     1     2   ar
    11     2     3   ar
    12     3     4   ar
    13     4    18    1
    14    18    19    1
    15    18    21    1
    16    21    22   ar
    17    22    23   ar
    18    23    24   ar
    19    24    25   ar
    20    18    27    1
    21    27    28    1
    22    27    29    1
    23     4     5   ar
    24     5     6   ar
    25    11    12   ar
    26    12     7   ar
    27     6     1   ar
    28    25    21   ar
    29    16    17    1
    30    19    20    1
    31    25    26    1
@<TRIPOS>MOLECULE
*****
 29 31 0 0 0
SMALL
GASTEIGER

@<TRIPOS>ATOM
      1 C          63.1460   89.2426   12.0736 C.ar    1  UNL1        0.0000
      2 C          63.7863   88.8884   13.3830 C.ar    1  UNL1       -0.0002
      3 C          64.6617   89.8849   14.0836 C.ar    1  UNL1       -0.0017
      4 C          64.8966   91.2355   13.4748 C.ar    1  UNL1        0.0070
      5 C          64.2563   91.5896   12.1654 C.ar    1  UNL1       -0.0017
      6 C          63.3809   90.5932   11.4648 C.ar    1  UNL1       -0.0002
      7 C          61.7985   85.8059   10.6163 C.ar    1  UNL1        0.0503
      8 C          60.5200   86.2531    9.9718 C.ar    1  UNL1        0.0147
      9 C          60.1168   87.6968   10.0279 C.ar    1  UNL1        0.0013
     10 C          60.9921   88.6933   10.7285 C.ar    1  UNL1        0.0001
     11 C          62.2706   88.2461   11.3730 C.ar    1  UNL1        0.0012
     12 C          62.6738   86.8024   11.3169 C.ar    1  UNL1        0.0147
     13 C          62.9686   82.1918   11.7649 C.3     1  UNL1        0.0949
     14 C          62.5654   83.6355   11.8210 C.2     1  UNL1        0.2266
     15 O          62.5260   84.3526   13.1380 O.2     1  UNL1       -0.2748
     16 N          62.2017   84.3622   10.5602 N.am    1  UNL1       -0.2839
     17 H          62.2276   83.8915    9.6959 H       1  UNL1        0.1549
     18 C          65.7720   92.2320   14.1754 C.3     1  UNL1        0.1410
     19 O          64.8737   92.1773   15.3754 O.3     1  UNL1       -0.3771
     20 H          64.1464   91.5580   15.2069 H       1  UNL1        0.2112
     21 C          66.6702   92.2866   12.9754 C.ar    1  UNL1        0.0825
     22 C          68.0218   91.6472   12.8559 C.ar    1  UNL1        0.1157
     23 N          68.5616   91.9557   11.4907 N.ar    1  UNL1       -0.2228
     24 C          67.5435   92.7858   10.7665 C.ar    1  UNL1        0.1749
     25 N          66.3746   92.9903   11.6840 N.ar    1  UNL1       -0.3361
     26 H          65.5569   93.4974   11.4753 H       1  UNL1        0.1673
     27 C          66.6473   93.2284   14.8759 C.3     1  UNL1        0.0340
     28 C          67.2449   92.8942   16.2105 C.3     1  UNL1        0.0031
     29 C          66.9250   94.5593   14.2419 C.3     1  UNL1        0.0031
@<TRIPOS>BOND
     1    13    14    1
     2    14    15    2
     3    14    16   am
     4    16     7    1
     5     7     8   ar
     6     8     9   ar
     7     9    10   ar
     8    10    11   ar
     9    11     1    1
    10     1     2   ar
    11     2     3   ar
    12     3     4   ar
    13     4    18    1
    14    18    19    1
    15    18    21    1
    16    21    22   ar
    17    22    23   ar
    18    23    24   ar
    19    24    25   ar
    20    18    27    1
    21    27    28    1
    22    27    29    1
    23     4     5   ar
    24     5     6   ar
    25    11    12   ar
    26    12     7   ar
    27     6     1   ar
    28    25    21   ar
    29    16    17    1
    30    19    20    1
    31    25    26    1
@<TRIPOS>MOLECULE
*****
 29 31 0 0 0
SMALL
GASTEIGER

@<TRIPOS>ATOM
      1 C          62.9662   89.5362   11.6147 C.ar    1  UNL1        0.0000
      2 C          63.3530   90.8763   11.0629 C.ar    1  UNL1       -0.0002
      3 C          64.2901   91.7613   11.8302 C.ar    1  UNL1       -0.0017
      4 C          64.8405   91.3061   13.1493 C.ar    1  UNL1        0.0070
      5 C          64.4536   89.9660   13.7011 C.ar    1  UNL1       -0.0017
      6 C          63.5165   89.0811   12.9338 C.ar    1  UNL1       -0.0002
      7 C          61.6348   86.7779    9.0911 C.ar    1  UNL1        0.0503
      8 C          60.1549   86.8813    9.3130 C.ar    1  UNL1        0.0147
      9 C          59.6121   87.8698   10.3021 C.ar    1  UNL1        0.0013
     10 C          60.5492   88.7547   11.0694 C.ar    1  UNL1        0.0001
     11 C          62.0291   88.6513   10.8475 C.ar    1  UNL1        0.0012
     12 C          62.5718   87.6628    9.8583 C.ar    1  UNL1        0.0147
     13 C          61.8244   84.2310    6.0534 C.3     1  UNL1        0.0949
     14 C          61.2816   85.2195    7.0425 C.2     1  UNL1        0.2266
     15 O          59.8428   85.6379    6.9723 O.2     1  UNL1       -0.2748
     16 N          62.1776   85.7895    8.1019 N.am    1  UNL1       -0.2839
     17 H          63.1219   85.5149    8.1480 H       1  UNL1        0.1549
     18 C          65.7776   92.1910   13.9165 C.3     1  UNL1        0.1410
     19 O          64.9643   91.9755   15.1583 O.3     1  UNL1       -0.3771
     20 H          64.2177   91.3896   14.9582 H       1  UNL1        0.2112
     21 C          66.5908   92.4065   12.6747 C.ar    1  UNL1        0.0825
     22 C          67.8790   91.7177   12.3338 C.ar    1  UNL1        0.1157
     23 N          68.3431   92.2342   11.0041 N.ar    1  UNL1       -0.2228
     24 C          67.3416   93.2421   10.5232 C.ar    1  UNL1        0.1749
     25 N          66.2587   93.3487   11.5557 N.ar    1  UNL1       -0.3361
     26 H          65.4687   93.9341   11.5073 H       1  UNL1        0.1673
     27 C          66.7147   93.0759   14.6838 C.3     1  UNL1        0.0340
     28 C          66.9420   94.4908   14.2406 C.3     1  UNL1        0.0031
     29 C          67.4245   92.5460   15.8943 C.3     1  UNL1        0.0031
@<TRIPOS>BOND
     1    13    14    1
     2    14    15    2
     3    14    16   am
     4    16     7    1
     5     7     8   ar
     6     8     9   ar
     7     9    10   ar
     8    10    11   ar
     9    11     1    1
    10     1     2   ar
    11     2     3   ar
    12     3     4   ar
    13     4    18    1
    14    18    19    1
    15    18    21    1
    16    21    22   ar
    17    22    23   ar
    18    23    24   ar
    19    24    25   ar
    20    18    27    1
    21    27    28    1
    22    27    29    1
    23     4     5   ar
    24     5     6   ar
    25    11    12   ar
    26    12     7   ar
    27     6     1   ar
    28    25    21   ar
    29    16    17    1
    30    19    20    1
    31    25    26    1
@<TRIPOS>MOLECULE
*****
 29 31 0 0 0
SMALL
GASTEIGER

@<TRIPOS>ATOM
      1 C          63.8088   87.4834   14.1015 C.ar    1  UNL1        0.0000
      2 C          64.1888   86.6075   15.2584 C.ar    1  UNL1       -0.0002
      3 C          63.8892   85.1383   15.2169 C.ar    1  UNL1       -0.0017
      4 C          63.2096   84.5450   14.0185 C.ar    1  UNL1        0.0070
      5 C          62.8296   85.4210   12.8616 C.ar    1  UNL1       -0.0017
      6 C          63.1292   86.8902   12.9031 C.ar    1  UNL1       -0.0002
      7 C          64.5997   91.1845   12.9072 C.ar    1  UNL1        0.0503
      8 C          64.7076   91.8910   14.2260 C.ar    1  UNL1        0.0147
      9 C          64.5159   91.1283   15.5033 C.ar    1  UNL1        0.0013
     10 C          64.2163   89.6591   15.4618 C.ar    1  UNL1        0.0001
     11 C          64.1084   88.9527   14.1431 C.ar    1  UNL1        0.0012
     12 C          64.3001   89.7154   12.8658 C.ar    1  UNL1        0.0147
     13 C          66.3028   93.3589   10.0574 C.3     1  UNL1        0.0949
     14 C          66.1111   92.5962   11.3347 C.2     1  UNL1        0.2266
     15 O          67.2392   92.4825   12.3169 O.2     1  UNL1       -0.2748
     16 N          64.7914   91.9473   11.6299 N.am    1  UNL1       -0.2839
     17 H          64.0510   92.0219   10.9853 H       1  UNL1        0.1549
     18 C          62.9100   83.0759   13.9769 C.3     1  UNL1        0.1410
     19 O          62.3846   83.1433   15.3802 O.3     1  UNL1       -0.3771
     20 H          62.4540   84.0536   15.7080 H       1  UNL1        0.2112
     21 C          63.4354   83.0084   12.5736 C.ar    1  UNL1        0.0825
     22 C          64.8648   83.1925   12.1574 C.ar    1  UNL1        0.1157
     23 N          64.9365   83.0429   10.6666 N.ar    1  UNL1       -0.2228
     24 C          63.5514   82.7664   10.1613 C.ar    1  UNL1        0.1749
     25 N          62.6238   82.7451   11.3399 N.ar    1  UNL1       -0.3361
     26 H          61.6527   82.5862   11.3091 H       1  UNL1        0.1673
     27 C          62.6104   81.6067   13.9353 C.3     1  UNL1        0.0340
     28 C          61.1979   81.1248   14.0852 C.3     1  UNL1        0.0031
     29 C          63.7234   80.6194   13.7439 C.3     1  UNL1        0.0031
@<TRIPOS>BOND
     1    13    14    1
     2    14    15    2
     3    14    16   am
     4    16     7    1
     5     7     8   ar
     6     8     9   ar
     7     9    10   ar
     8    10    11   ar
     9    11     1    1
    10     1     2   ar
    11     2     3   ar
    12     3     4   ar
    13     4    18    1
    14    18    19    1
    15    18    21    1
    16    21    22   ar
    17    22    23   ar
    18    23    24   ar
    19    24    25   ar
    20    18    27    1
    21    27    28    1
    22    27    29    1
    23     4     5   ar
    24     5     6   ar
    25    11    12   ar
    26    12     7   ar
    27     6     1   ar
    28    25    21   ar
    29    16    17    1
    30    19    20    1
    31    25    26    1
@<TRIPOS>MOLECULE
*****
 29 31 0 0 0
SMALL
GASTEIGER

@<TRIPOS>ATOM
      1 C          64.8015   91.2857   13.4787 C.ar    1  UNL1        0.0000
      2 C          65.9698   92.1542   13.8403 C.ar    1  UNL1       -0.0002
      3 C          66.4437   93.2096   12.8854 C.ar    1  UNL1       -0.0017
      4 C          65.7493   93.3964   11.5691 C.ar    1  UNL1        0.0070
      5 C          64.5809   92.5279   11.2075 C.ar    1  UNL1       -0.0017
      6 C          64.1070   91.4726   12.1623 C.ar    1  UNL1       -0.0002
      7 C          64.1639   87.7313   15.1247 C.ar    1  UNL1        0.0503
      8 C          63.3797   88.1196   16.3430 C.ar    1  UNL1        0.0147
      9 C          63.0695   89.5633   16.6065 C.ar    1  UNL1        0.0013
     10 C          63.5434   90.6187   15.6518 C.ar    1  UNL1        0.0001
     11 C          64.3275   90.2303   14.4335 C.ar    1  UNL1        0.0012
     12 C          64.6378   88.7866   14.1700 C.ar    1  UNL1        0.0147
     13 C          64.1859   84.1531   13.4083 C.3     1  UNL1        0.0949
     14 C          63.8757   85.5968   13.6718 C.2     1  UNL1        0.2266
     15 O          62.9669   86.3498   12.7459 O.2     1  UNL1       -0.2748
     16 N          64.4741   86.2876   14.8612 N.am    1  UNL1       -0.2839
     17 H          65.0706   85.7934   15.4689 H       1  UNL1        0.1549
     18 C          66.2232   94.4517   10.6143 C.3     1  UNL1        0.1410
     19 O          65.2337   95.4194   11.1926 O.3     1  UNL1       -0.3771
     20 H          64.7315   94.9845   11.8994 H       1  UNL1        0.2112
     21 C          67.2127   93.4841   10.0359 C.ar    1  UNL1        0.0825
     22 C          68.6331   93.7918    9.6646 C.ar    1  UNL1        0.1157
     23 N          69.2538   92.5367    9.1265 N.ar    1  UNL1       -0.2228
     24 C          68.2170   91.4533    9.1651 C.ar    1  UNL1        0.1749
     25 N          66.9555   92.0389    9.7271 N.ar    1  UNL1       -0.3361
     26 H          66.1076   91.5589    9.8686 H       1  UNL1        0.1673
     27 C          66.6971   95.5071    9.6595 C.3     1  UNL1        0.0340
     28 C          67.1224   96.8495   10.1761 C.3     1  UNL1        0.0031
     29 C          66.7456   95.2199    8.1879 C.3     1  UNL1        0.0031
@<TRIPOS>BOND
     1    13    14    1
     2    14    15    2
     3    14    16   am
     4    16     7    1
     5     7     8   ar
     6     8     9   ar
     7     9    10   ar
     8    10    11   ar
     9    11     1    1
    10     1     2   ar
    11     2     3   ar
    12     3     4   ar
    13     4    18    1
    14    18    19    1
    15    18    21    1
    16    21    22   ar
    17    22    23   ar
    18    23    24   ar
    19    24    25   ar
    20    18    27    1
    21    27    28    1
    22    27    29    1
    23     4     5   ar
    24     5     6   ar
    25    11    12   ar
    26    12     7   ar
    27     6     1   ar
    28    25    21   ar
    29    16    17    1
    30    19    20    1
    31    25    26    1
@<TRIPOS>MOLECULE
*****
 29 31 0 0 0
SMALL
GASTEIGER

@<TRIPOS>ATOM
      1 C          63.5709   90.3658   11.5961 C.ar    1  UNL1        0.0000
      2 C          63.1753   89.0196   12.1263 C.ar    1  UNL1       -0.0002
      3 C          62.2923   88.1222   11.3108 C.ar    1  UNL1       -0.0017
      4 C          61.8049   88.5710    9.9651 C.ar    1  UNL1        0.0070
      5 C          62.2006   89.9173    9.4349 C.ar    1  UNL1       -0.0017
      6 C          63.0835   90.8147   10.2504 C.ar    1  UNL1       -0.0002
      7 C          65.7815   93.4813   12.6718 C.ar    1  UNL1        0.0503
      8 C          66.2198   93.0581   14.0425 C.ar    1  UNL1        0.0147
      9 C          65.7752   91.7374   14.5977 C.ar    1  UNL1        0.0013
     10 C          64.8922   90.8400   13.7823 C.ar    1  UNL1        0.0001
     11 C          64.4539   91.2632   12.4116 C.ar    1  UNL1        0.0012
     12 C          64.8985   92.5838   11.8564 C.ar    1  UNL1        0.0147
     13 C          67.1788   96.2112   10.1528 C.3     1  UNL1        0.0949
     14 C          66.7342   94.8905   10.7081 C.2     1  UNL1        0.2266
     15 O          66.7975   93.6585    9.8547 O.2     1  UNL1       -0.2748
     16 N          66.2262   94.8019   12.1166 N.am    1  UNL1       -0.2839
     17 H          66.1846   95.6105   12.6767 H       1  UNL1        0.1549
     18 C          60.9219   87.6737    9.1496 C.3     1  UNL1        0.1410
     19 O          60.1544   88.8683    8.6661 O.3     1  UNL1       -0.3771
     20 H          60.5273   89.6729    9.0591 H       1  UNL1        0.2112
     21 C          61.6894   86.4791    9.6331 C.ar    1  UNL1        0.0825
     22 C          62.8911   85.8751    8.9687 C.ar    1  UNL1        0.1157
     23 N          63.3344   84.7014    9.7909 N.ar    1  UNL1       -0.2228
     24 C          62.4067   84.5800   10.9634 C.ar    1  UNL1        0.1749
     25 N          61.3901   85.6786   10.8659 N.ar    1  UNL1       -0.3361
     26 H          60.6554   85.8451   11.4997 H       1  UNL1        0.1673
     27 C          60.0390   86.7763    8.3341 C.3     1  UNL1        0.0340
     28 C          60.6409   85.6670    7.5235 C.3     1  UNL1        0.0031
     29 C          58.5540   86.9883    8.3291 C.3     1  UNL1        0.0031
@<TRIPOS>BOND
     1    13    14    1
     2    14    15    2
     3    14    16   am
     4    16     7    1
     5     7     8   ar
     6     8     9   ar
     7     9    10   ar
     8    10    11   ar
     9    11     1    1
    10     1     2   ar
    11     2     3   ar
    12     3     4   ar
    13     4    18    1
    14    18    19    1
    15    18    21    1
    16    21    22   ar
    17    22    23   ar
    18    23    24   ar
    19    24    25   ar
    20    18    27    1
    21    27    28    1
    22    27    29    1
    23     4     5   ar
    24     5     6   ar
    25    11    12   ar
    26    12     7   ar
    27     6     1   ar
    28    25    21   ar
    29    16    17    1
    30    19    20    1
    31    25    26    1
@<TRIPOS>MOLECULE
*****
 29 31 0 0 0
SMALL
GASTEIGER

@<TRIPOS>ATOM
      1 C          64.2005   91.5588   11.5214 C.ar    1  UNL1        0.0000
      2 C          63.8973   90.4265   12.4573 C.ar    1  UNL1       -0.0002
      3 C          63.0209   89.2954   12.0071 C.ar    1  UNL1       -0.0017
      4 C          62.4477   89.2967   10.6209 C.ar    1  UNL1        0.0070
      5 C          62.7509   90.4290    9.6850 C.ar    1  UNL1       -0.0017
      6 C          63.6273   91.5600   10.1352 C.ar    1  UNL1       -0.0002
      7 C          66.6162   93.7667   13.7663 C.ar    1  UNL1        0.0503
      8 C          66.8297   94.9518   12.8720 C.ar    1  UNL1        0.0147
      9 C          66.1669   95.0059   11.5274 C.ar    1  UNL1        0.0013
     10 C          65.2905   93.8749   11.0772 C.ar    1  UNL1        0.0001
     11 C          65.0770   92.6898   11.9715 C.ar    1  UNL1        0.0012
     12 C          65.7398   92.6357   13.3161 C.ar    1  UNL1        0.0147
     13 C          69.2817   93.0011   16.6050 C.3     1  UNL1        0.0949
     14 C          68.6189   93.0552   15.2605 C.2     1  UNL1        0.2266
     15 O          69.2960   92.4519   14.0657 O.2     1  UNL1       -0.2748
     16 N          67.2790   93.7126   15.1108 N.am    1  UNL1       -0.2839
     17 H          66.8346   94.1085   15.8950 H       1  UNL1        0.1549
     18 C          61.5713   88.1657   10.1707 C.3     1  UNL1        0.1410
     19 O          62.7124   87.5956    9.3816 O.3     1  UNL1       -0.3771
     20 H          63.4927   88.1623    9.4859 H       1  UNL1        0.2112
     21 C          60.4302   88.7358   10.9599 C.ar    1  UNL1        0.0825
     22 C          59.8415   90.1056   10.7951 C.ar    1  UNL1        0.1157
     23 N          58.7248   90.2525   11.7858 N.ar    1  UNL1       -0.2228
     24 C          58.6234   88.9735   12.5630 C.ar    1  UNL1        0.1749
     25 N          59.6773   88.0362   12.0526 N.ar    1  UNL1       -0.3361
     26 H          59.8455   87.1222   12.3777 H       1  UNL1        0.1673
     27 C          60.6949   87.0347    9.7205 C.3     1  UNL1        0.0340
     28 C          59.4956   87.3107    8.8629 C.3     1  UNL1        0.0031
     29 C          61.0177   85.6276   10.1280 C.3     1  UNL1        0.0031
@<TRIPOS>BOND
     1    13    14    1
     2    14    15    2
     3    14    16   am
     4    16     7    1
     5     7     8   ar
     6     8     9   ar
     7     9    10   ar
     8    10    11   ar
     9    11     1    1
    10     1     2   ar
    11     2     3   ar
    12     3     4   ar
    13     4    18    1
    14    18    19    1
    15    18    21    1
    16    21    22   ar
    17    22    23   ar
    18    23    24   ar
    19    24    25   ar
    20    18    27    1
    21    27    28    1
    22    27    29    1
    23     4     5   ar
    24     5     6   ar
    25    11    12   ar
    26    12     7   ar
    27     6     1   ar
    28    25    21   ar
    29    16    17    1
    30    19    20    1
    31    25    26    1
