@<TRIPOS>MOLECULE
*****
 35 38 0 0 0
SMALL
GASTEIGER

@<TRIPOS>ATOM
      1 C          63.8943   86.9335   15.7050 C.2     1  UNL1       -0.0445
      2 C          63.1538   86.7933   17.0019 C.3     1  UNL1        0.0261
      3 C          64.1068   88.2921   15.1059 C.2     1  UNL1        0.0122
      4 C          64.4222   85.7152   15.0072 C.3     1  UNL1        0.0244
      5 C          63.5474   84.5081   14.8407 C.3     1  UNL1        0.0364
      6 C          63.4726   83.5157   11.0890 C.3     1  UNL1        0.2350
      7 O          63.8795   84.4508   12.1890 O.3     1  UNL1       -0.3306
      8 C          63.3676   83.8937   13.4841 C.3     1  UNL1        0.1428
      9 C          62.6442   82.6143   13.1846 C.3     1  UNL1        0.1202
     10 C          61.8735   81.3274   13.1951 C.3     1  UNL1        0.0322
     11 C          62.4182   82.5789   14.6671 C.3     1  UNL1        0.0322
     12 O          62.7091   82.3807   11.7044 O.3     1  UNL1       -0.3329
     13 C          63.7759   83.6857    9.6298 C.3     1  UNL1        0.0613
     14 C          63.1159   84.7837    8.8497 C.3     1  UNL1        0.0052
     15 C          62.4529   85.9209    9.5690 C.3     1  UNL1        0.0002
     16 C          60.9726   86.1273    9.4424 C.3     1  UNL1        0.0000
     17 C          60.3423   86.2245    8.0848 C.3     1  UNL1        0.0000
     18 C          59.3017   88.5051    7.4023 C.3     1  UNL1        0.0000
     19 C          59.1363   87.0922    7.8781 C.3     1  UNL1        0.0000
     20 C          63.5789   89.5105   15.8037 C.3     1  UNL1        0.2312
     21 O          63.1489   90.7051   15.0049 O.3     1  UNL1       -0.4705
     22 C          64.0480   91.2576   13.9389 C.ar    1  UNL1        0.1449
     23 C          63.6568   91.1454   12.4952 C.ar    1  UNL1        0.0718
     24 C          62.4554   90.5480   11.8245 C.ar    1  UNL1        0.0467
     25 C          62.6122   90.7314   10.3440 C.ar    1  UNL1        0.1797
     26 O          63.9103   91.4421   10.0998 O.2     1  UNL1       -0.4502
     27 C          64.5560   91.6980   11.4293 C.ar    1  UNL1        0.1514
     28 C          65.8464   92.3628   11.8072 C.ar    1  UNL1        0.0753
     29 C          66.2377   92.4750   13.2509 C.ar    1  UNL1        0.1546
     30 O          67.5283   93.1398   13.6286 O.2     1  UNL1       -0.4208
     31 C          67.9196   93.2520   15.0723 C.ar    1  UNL1        0.3459
     32 O          69.2100   93.9167   15.4501 O.2     1  UNL1       -0.2445
     33 C          67.0204   92.6994   16.1383 C.ar    1  UNL1        0.0825
     34 C          65.7299   92.0346   15.7605 C.ar    1  UNL1        0.0127
     35 C          65.3386   91.9224   14.3167 C.ar    1  UNL1        0.0690
@<TRIPOS>BOND
     1    18    19    1
     2    19    17    1
     3    17    16    1
     4    16    15    1
     5    15    14    1
     6    14    13    1
     7    13     6    1
     8     6     7    1
     9     7     8    1
    10     8     5    1
    11     5     4    1
    12     4     1    1
    13     1     2    1
    14     1     3    2
    15     3    20    1
    16    20    21    1
    17    21    22    1
    18    22    23   ar
    19    23    24   ar
    20    24    25   ar
    21    25    26   ar
    22    26    27   ar
    23    27    28   ar
    24    28    29   ar
    25    29    30   ar
    26    30    31   ar
    27    31    32    2
    28    31    33   ar
    29    33    34   ar
    30    34    35   ar
    31     8     9    1
    32     9    10    1
    33     9    11    1
    34     9    12    1
    35    12     6    1
    36    35    22   ar
    37    27    23   ar
    38    35    29   ar
@<TRIPOS>MOLECULE
*****
 35 38 0 0 0
SMALL
GASTEIGER

@<TRIPOS>ATOM
      1 C          63.9970   86.9292   15.4893 C.2     1  UNL1       -0.0445
      2 C          63.1828   87.0845   16.7395 C.3     1  UNL1        0.0261
      3 C          64.3529   88.1352   14.6715 C.2     1  UNL1        0.0122
      4 C          64.4552   85.5679   15.0570 C.3     1  UNL1        0.0244
      5 C          63.4526   84.4746   14.8346 C.3     1  UNL1        0.0364
      6 C          63.6201   83.3175   11.1335 C.3     1  UNL1        0.2350
      7 O          63.9463   84.3066   12.2130 O.3     1  UNL1       -0.3306
      8 C          63.3643   83.7984   13.4986 C.3     1  UNL1        0.1428
      9 C          62.6783   82.4952   13.2137 C.3     1  UNL1        0.1202
     10 C          61.9265   81.1974   13.2353 C.3     1  UNL1        0.0322
     11 C          62.3630   82.5211   14.6799 C.3     1  UNL1        0.0322
     12 O          62.8365   82.1981   11.7520 O.3     1  UNL1       -0.3329
     13 C          64.0092   83.4285    9.6890 C.3     1  UNL1        0.0613
     14 C          63.1272   84.1711    8.7297 C.3     1  UNL1        0.0052
     15 C          63.2521   85.6598    8.5946 C.3     1  UNL1        0.0002
     16 C          62.2786   86.5607    9.2951 C.3     1  UNL1        0.0000
     17 C          60.8083   86.2710    9.2306 C.3     1  UNL1        0.0000
     18 C          58.8039   86.9325    7.7158 C.3     1  UNL1        0.0000
     19 C          60.1112   86.2212    7.9034 C.3     1  UNL1        0.0000
     20 C          63.8947   89.4965   15.1038 C.3     1  UNL1        0.2312
     21 O          62.7502   90.1617   14.3984 O.3     1  UNL1       -0.4705
     22 C          62.8529   90.4785   12.9358 C.ar    1  UNL1        0.1449
     23 C          61.7702   90.0391   11.9953 C.ar    1  UNL1        0.0718
     24 C          60.4929   89.2846   12.2175 C.ar    1  UNL1        0.0467
     25 C          59.8064   89.1351   10.8923 C.ar    1  UNL1        0.1797
     26 O          60.6592   89.7973    9.8511 O.2     1  UNL1       -0.4502
     27 C          61.8729   90.3560   10.5328 C.ar    1  UNL1        0.1514
     28 C          63.0584   91.1123   10.0107 C.ar    1  UNL1        0.0753
     29 C          64.1412   91.5518   10.9512 C.ar    1  UNL1        0.1546
     30 O          65.3267   92.3081   10.4291 O.2     1  UNL1       -0.4208
     31 C          66.4094   92.7476   11.3696 C.ar    1  UNL1        0.3459
     32 O          67.5949   93.5039   10.8476 O.2     1  UNL1       -0.2445
     33 C          66.3067   92.4307   12.8322 C.ar    1  UNL1        0.0825
     34 C          65.1212   91.6744   13.3543 C.ar    1  UNL1        0.0127
     35 C          64.0384   91.2349   12.4137 C.ar    1  UNL1        0.0690
@<TRIPOS>BOND
     1    18    19    1
     2    19    17    1
     3    17    16    1
     4    16    15    1
     5    15    14    1
     6    14    13    1
     7    13     6    1
     8     6     7    1
     9     7     8    1
    10     8     5    1
    11     5     4    1
    12     4     1    1
    13     1     2    1
    14     1     3    2
    15     3    20    1
    16    20    21    1
    17    21    22    1
    18    22    23   ar
    19    23    24   ar
    20    24    25   ar
    21    25    26   ar
    22    26    27   ar
    23    27    28   ar
    24    28    29   ar
    25    29    30   ar
    26    30    31   ar
    27    31    32    2
    28    31    33   ar
    29    33    34   ar
    30    34    35   ar
    31     8     9    1
    32     9    10    1
    33     9    11    1
    34     9    12    1
    35    12     6    1
    36    35    22   ar
    37    27    23   ar
    38    35    29   ar
@<TRIPOS>MOLECULE
*****
 35 38 0 0 0
SMALL
GASTEIGER

@<TRIPOS>ATOM
      1 C          64.1576   86.9150   15.4928 C.2     1  UNL1       -0.0445
      2 C          63.2923   86.6797   16.6953 C.3     1  UNL1        0.0261
      3 C          64.3343   88.3046   14.9564 C.2     1  UNL1        0.0122
      4 C          64.8461   85.7608   14.8268 C.3     1  UNL1        0.0244
      5 C          64.2707   84.3798   14.9361 C.3     1  UNL1        0.0364
      6 C          63.4738   83.0002   11.3968 C.3     1  UNL1        0.2350
      7 O          64.2333   83.9236   12.3026 O.3     1  UNL1       -0.3306
      8 C          63.7739   83.6751   13.7086 C.3     1  UNL1        0.1428
      9 C          62.7304   82.5982   13.6719 C.3     1  UNL1        0.1202
     10 C          61.6798   81.5632   13.9458 C.3     1  UNL1        0.0322
     11 C          62.6963   82.7990   15.1580 C.3     1  UNL1        0.0322
     12 O          62.5450   82.1811   12.2430 O.3     1  UNL1       -0.3329
     13 C          63.6179   82.9115    9.9063 C.3     1  UNL1        0.0613
     14 C          63.9802   84.1325    9.1139 C.3     1  UNL1        0.0052
     15 C          62.9420   84.8185    8.2765 C.3     1  UNL1        0.0002
     16 C          62.3180   86.0965    8.7536 C.3     1  UNL1        0.0000
     17 C          61.1954   86.0576    9.7476 C.3     1  UNL1        0.0000
     18 C          62.6927   86.6709   11.7803 C.3     1  UNL1        0.0000
     19 C          61.4953   85.9665   11.2145 C.3     1  UNL1        0.0000
     20 C          63.6457   89.4589   15.6224 C.3     1  UNL1        0.2312
     21 O          62.8642   90.4412   14.8012 O.3     1  UNL1       -0.4705
     22 C          63.3323   90.8075   13.4240 C.ar    1  UNL1        0.1449
     23 C          64.6395   91.5202   13.2409 C.ar    1  UNL1        0.0718
     24 C          65.6732   91.9885   14.2218 C.ar    1  UNL1        0.0467
     25 C          66.7802   92.6442   13.4507 C.ar    1  UNL1        0.1797
     26 O          66.4306   92.5812   11.9934 O.2     1  UNL1       -0.4502
     27 C          65.1075   91.8865   11.8637 C.ar    1  UNL1        0.1514
     28 C          64.2685   91.5402   10.6696 C.ar    1  UNL1        0.0753
     29 C          62.9614   90.8275   10.8526 C.ar    1  UNL1        0.1546
     30 O          62.1223   90.4812    9.6583 O.2     1  UNL1       -0.4208
     31 C          60.8152   89.7685    9.8414 C.ar    1  UNL1        0.3459
     32 O          59.9762   89.4222    8.6472 O.2     1  UNL1       -0.2445
     33 C          60.3471   89.4022   11.2186 C.ar    1  UNL1        0.0825
     34 C          61.1861   89.7485   12.4128 C.ar    1  UNL1        0.0127
     35 C          62.4933   90.4612   12.2297 C.ar    1  UNL1        0.0690
@<TRIPOS>BOND
     1    18    19    1
     2    19    17    1
     3    17    16    1
     4    16    15    1
     5    15    14    1
     6    14    13    1
     7    13     6    1
     8     6     7    1
     9     7     8    1
    10     8     5    1
    11     5     4    1
    12     4     1    1
    13     1     2    1
    14     1     3    2
    15     3    20    1
    16    20    21    1
    17    21    22    1
    18    22    23   ar
    19    23    24   ar
    20    24    25   ar
    21    25    26   ar
    22    26    27   ar
    23    27    28   ar
    24    28    29   ar
    25    29    30   ar
    26    30    31   ar
    27    31    32    2
    28    31    33   ar
    29    33    34   ar
    30    34    35   ar
    31     8     9    1
    32     9    10    1
    33     9    11    1
    34     9    12    1
    35    12     6    1
    36    35    22   ar
    37    27    23   ar
    38    35    29   ar
@<TRIPOS>MOLECULE
*****
 35 38 0 0 0
SMALL
GASTEIGER

@<TRIPOS>ATOM
      1 C          62.3641   85.5396    9.1512 C.2     1  UNL1       -0.0445
      2 C          63.1378   85.2454    7.9003 C.3     1  UNL1        0.0261
      3 C          62.7872   84.9311   10.4553 C.2     1  UNL1        0.0122
      4 C          61.1672   86.4422    9.0980 C.3     1  UNL1        0.0244
      5 C          60.7063   87.1505   10.3372 C.3     1  UNL1        0.0364
      6 C          62.6481   90.4632   10.9041 C.3     1  UNL1        0.2350
      7 O          62.6113   89.0183   10.5029 O.3     1  UNL1       -0.3306
      8 C          61.1972   88.5363   10.6354 C.3     1  UNL1        0.1428
      9 C          60.3598   89.6832   11.1185 C.3     1  UNL1        0.1202
     10 C          59.2882   90.6223   11.5874 C.3     1  UNL1        0.0322
     11 C          59.2391   88.6886   11.0505 C.3     1  UNL1        0.0322
     12 O          61.2566   90.8741   11.2845 O.3     1  UNL1       -0.3329
     13 C          63.8631   91.3427   10.9217 C.3     1  UNL1        0.0613
     14 C          64.6054   91.5706   12.2050 C.3     1  UNL1        0.0052
     15 C          64.2494   90.7787   13.4281 C.3     1  UNL1        0.0002
     16 C          65.1951   90.7298   14.5915 C.3     1  UNL1        0.0000
     17 C          66.4395   91.5672   14.5821 C.3     1  UNL1        0.0000
     18 C          67.9566   93.3204   15.7547 C.3     1  UNL1        0.0000
     19 C          66.6238   92.6483   15.6055 C.3     1  UNL1        0.0000
     20 C          63.9841   84.0285   10.5085 C.3     1  UNL1        0.2312
     21 O          64.6179   83.7004   11.8278 O.3     1  UNL1       -0.4705
     22 C          63.7637   83.5346   13.0496 C.ar    1  UNL1        0.1449
     23 C          63.0208   82.2515   13.2770 C.ar    1  UNL1        0.0718
     24 C          62.9379   80.9847   12.4781 C.ar    1  UNL1        0.0467
     25 C          62.0325   80.0360   13.2062 C.ar    1  UNL1        0.1797
     26 O          61.5558   80.7165   14.4551 O.2     1  UNL1       -0.4502
     27 C          62.1666   82.0858   14.4988 C.ar    1  UNL1        0.1514
     28 C          62.0554   83.2031   15.4934 C.ar    1  UNL1        0.0753
     29 C          62.7983   84.4862   15.2660 C.ar    1  UNL1        0.1546
     30 O          62.6870   85.6036   16.2607 O.2     1  UNL1       -0.4208
     31 C          63.4300   86.8867   16.0333 C.ar    1  UNL1        0.3459
     32 O          63.3187   88.0041   17.0279 O.2     1  UNL1       -0.2445
     33 C          64.2842   87.0525   14.8115 C.ar    1  UNL1        0.0825
     34 C          64.3954   85.9352   13.8170 C.ar    1  UNL1        0.0127
     35 C          63.6524   84.6520   14.0443 C.ar    1  UNL1        0.0690
@<TRIPOS>BOND
     1    18    19    1
     2    19    17    1
     3    17    16    1
     4    16    15    1
     5    15    14    1
     6    14    13    1
     7    13     6    1
     8     6     7    1
     9     7     8    1
    10     8     5    1
    11     5     4    1
    12     4     1    1
    13     1     2    1
    14     1     3    2
    15     3    20    1
    16    20    21    1
    17    21    22    1
    18    22    23   ar
    19    23    24   ar
    20    24    25   ar
    21    25    26   ar
    22    26    27   ar
    23    27    28   ar
    24    28    29   ar
    25    29    30   ar
    26    30    31   ar
    27    31    32    2
    28    31    33   ar
    29    33    34   ar
    30    34    35   ar
    31     8     9    1
    32     9    10    1
    33     9    11    1
    34     9    12    1
    35    12     6    1
    36    35    22   ar
    37    27    23   ar
    38    35    29   ar
@<TRIPOS>MOLECULE
*****
 35 38 0 0 0
SMALL
GASTEIGER

@<TRIPOS>ATOM
      1 C          62.4208   85.4581    9.7298 C.2     1  UNL1       -0.0445
      2 C          61.7150   85.3690   11.0504 C.3     1  UNL1        0.0261
      3 C          63.5402   84.5115    9.4124 C.2     1  UNL1        0.0122
      4 C          62.0070   86.4937    8.7267 C.3     1  UNL1        0.0244
      5 C          61.0046   87.5441    9.1031 C.3     1  UNL1        0.0364
      6 C          62.7438   90.6561   10.6379 C.3     1  UNL1        0.2350
      7 O          62.7171   89.5197    9.6592 O.3     1  UNL1       -0.3306
      8 C          61.4417   88.7583    9.8678 C.3     1  UNL1        0.1428
      9 C          60.6802   89.4240   10.9754 C.3     1  UNL1        0.1202
     10 C          59.7080   89.8638   12.0296 C.3     1  UNL1        0.0322
     11 C          59.6722   88.3430   10.7198 C.3     1  UNL1        0.0322
     12 O          61.4849   90.5970   11.4513 O.3     1  UNL1       -0.3329
     13 C          63.8374   91.6732   10.7784 C.3     1  UNL1        0.0613
     14 C          64.5653   91.8164   12.0821 C.3     1  UNL1        0.0052
     15 C          65.6241   92.8674   12.2384 C.3     1  UNL1        0.0002
     16 C          65.8551   93.8678   11.1448 C.3     1  UNL1        0.0000
     17 C          67.0668   93.7540   10.2679 C.3     1  UNL1        0.0000
     18 C          68.7747   92.2851    8.9736 C.3     1  UNL1        0.0000
     19 C          67.6147   92.4023    9.9174 C.3     1  UNL1        0.0000
     20 C          63.9540   83.4759   10.4155 C.3     1  UNL1        0.2312
     21 O          64.5365   83.8974   11.7319 O.3     1  UNL1       -0.4705
     22 C          63.7651   83.6749   12.9990 C.ar    1  UNL1        0.1449
     23 C          63.1036   82.3526   13.2522 C.ar    1  UNL1        0.0718
     24 C          63.0392   81.0914   12.4428 C.ar    1  UNL1        0.0467
     25 C          62.2280   80.0895   13.2097 C.ar    1  UNL1        0.1797
     26 O          61.7911   80.7315   14.4930 O.2     1  UNL1       -0.4502
     27 C          62.3323   82.1303   14.5193 C.ar    1  UNL1        0.1514
     28 C          62.2223   83.2302   15.5332 C.ar    1  UNL1        0.0753
     29 C          62.8838   84.5524   15.2801 C.ar    1  UNL1        0.1546
     30 O          62.7738   85.6523   16.2941 O.2     1  UNL1       -0.4208
     31 C          63.4352   86.9746   16.0410 C.ar    1  UNL1        0.3459
     32 O          63.3253   88.0745   17.0550 O.2     1  UNL1       -0.2445
     33 C          64.2066   87.1971   14.7739 C.ar    1  UNL1        0.0825
     34 C          64.3166   86.0972   13.7599 C.ar    1  UNL1        0.0127
     35 C          63.6551   84.7748   14.0131 C.ar    1  UNL1        0.0690
@<TRIPOS>BOND
     1    18    19    1
     2    19    17    1
     3    17    16    1
     4    16    15    1
     5    15    14    1
     6    14    13    1
     7    13     6    1
     8     6     7    1
     9     7     8    1
    10     8     5    1
    11     5     4    1
    12     4     1    1
    13     1     2    1
    14     1     3    2
    15     3    20    1
    16    20    21    1
    17    21    22    1
    18    22    23   ar
    19    23    24   ar
    20    24    25   ar
    21    25    26   ar
    22    26    27   ar
    23    27    28   ar
    24    28    29   ar
    25    29    30   ar
    26    30    31   ar
    27    31    32    2
    28    31    33   ar
    29    33    34   ar
    30    34    35   ar
    31     8     9    1
    32     9    10    1
    33     9    11    1
    34     9    12    1
    35    12     6    1
    36    35    22   ar
    37    27    23   ar
    38    35    29   ar
@<TRIPOS>MOLECULE
*****
 35 38 0 0 0
SMALL
GASTEIGER

@<TRIPOS>ATOM
      1 C          60.3216   89.5754   10.6139 C.2     1  UNL1       -0.0445
      2 C          59.7647   90.6490   11.5011 C.3     1  UNL1        0.0261
      3 C          61.6383   89.7798    9.9251 C.2     1  UNL1        0.0122
      4 C          59.5618   88.2974   10.4155 C.3     1  UNL1        0.0244
      5 C          60.1958   87.1544    9.6796 C.3     1  UNL1        0.0364
      6 C          62.6418   85.2716   12.0328 C.3     1  UNL1        0.2350
      7 O          61.4568   86.1661   11.8193 O.3     1  UNL1       -0.3306
      8 C          61.2659   86.3377   10.3415 C.3     1  UNL1        0.1428
      9 C          62.3329   85.5492    9.6416 C.3     1  UNL1        0.1202
     10 C          63.2627   84.8688    8.6812 C.3     1  UNL1        0.0322
     11 C          61.6769   86.0659    8.3955 C.3     1  UNL1        0.0322
     12 O          63.1832   84.8903   10.6869 O.3     1  UNL1       -0.3329
     13 C          63.1893   84.8349   13.3594 C.3     1  UNL1        0.0613
     14 C          62.3011   84.1317   14.3424 C.3     1  UNL1        0.0052
     15 C          62.5428   82.6886   14.6728 C.3     1  UNL1        0.0002
     16 C          61.8333   81.6140   13.9034 C.3     1  UNL1        0.0000
     17 C          62.5644   80.8418   12.8455 C.3     1  UNL1        0.0000
     18 C          64.2434   82.0001   11.2363 C.3     1  UNL1        0.0000
     19 C          62.8652   81.4819   11.5226 C.3     1  UNL1        0.0000
     20 C          62.3981   91.0578   10.1235 C.3     1  UNL1        0.2312
     21 O          63.8915   91.0288   10.2610 O.3     1  UNL1       -0.4705
     22 C          64.5493   91.6877   11.4373 C.ar    1  UNL1        0.1449
     23 C          65.4764   92.8476   11.2257 C.ar    1  UNL1        0.0718
     24 C          65.9303   93.5562    9.9839 C.ar    1  UNL1        0.0467
     25 C          66.8685   94.6529   10.3927 C.ar    1  UNL1        0.1797
     26 O          66.9944   94.6221   11.8871 O.2     1  UNL1       -0.4502
     27 C          66.1341   93.5064   12.4019 C.ar    1  UNL1        0.1514
     28 C          65.8646   93.0051   13.7897 C.ar    1  UNL1        0.0753
     29 C          64.9374   91.8452   14.0013 C.ar    1  UNL1        0.1546
     30 O          64.6680   91.3440   15.3893 O.2     1  UNL1       -0.4208
     31 C          63.7408   90.1840   15.6009 C.ar    1  UNL1        0.3459
     32 O          63.4713   89.6828   16.9887 O.2     1  UNL1       -0.2445
     33 C          63.0830   89.5252   14.4247 C.ar    1  UNL1        0.0825
     34 C          63.3526   90.0264   13.0368 C.ar    1  UNL1        0.0127
     35 C          64.2798   91.1865   12.8252 C.ar    1  UNL1        0.0690
@<TRIPOS>BOND
     1    18    19    1
     2    19    17    1
     3    17    16    1
     4    16    15    1
     5    15    14    1
     6    14    13    1
     7    13     6    1
     8     6     7    1
     9     7     8    1
    10     8     5    1
    11     5     4    1
    12     4     1    1
    13     1     2    1
    14     1     3    2
    15     3    20    1
    16    20    21    1
    17    21    22    1
    18    22    23   ar
    19    23    24   ar
    20    24    25   ar
    21    25    26   ar
    22    26    27   ar
    23    27    28   ar
    24    28    29   ar
    25    29    30   ar
    26    30    31   ar
    27    31    32    2
    28    31    33   ar
    29    33    34   ar
    30    34    35   ar
    31     8     9    1
    32     9    10    1
    33     9    11    1
    34     9    12    1
    35    12     6    1
    36    35    22   ar
    37    27    23   ar
    38    35    29   ar
@<TRIPOS>MOLECULE
*****
 35 38 0 0 0
SMALL
GASTEIGER

@<TRIPOS>ATOM
      1 C          60.3422   89.4302   10.0757 C.2     1  UNL1       -0.0445
      2 C          59.6056   89.7320   11.3471 C.3     1  UNL1        0.0261
      3 C          61.7179   89.9863    9.8559 C.2     1  UNL1        0.0122
      4 C          59.7031   88.5724    9.0242 C.3     1  UNL1        0.0244
      5 C          59.7991   87.0782    9.1149 C.3     1  UNL1        0.0364
      6 C          62.4583   85.7129   11.5908 C.3     1  UNL1        0.2350
      7 O          61.1934   86.4698   11.3128 O.3     1  UNL1       -0.3306
      8 C          60.9531   86.4431    9.8325 C.3     1  UNL1        0.1428
      9 C          62.0694   85.6696    9.1955 C.3     1  UNL1        0.1202
     10 C          63.0334   84.9595    8.2919 C.3     1  UNL1        0.0322
     11 C          61.3407   85.9725    7.9199 C.3     1  UNL1        0.0322
     12 O          62.9996   85.2184   10.2823 O.3     1  UNL1       -0.3329
     13 C          63.0737   85.4897   12.9404 C.3     1  UNL1        0.0613
     14 C          63.1921   84.0991   13.4900 C.3     1  UNL1        0.0052
     15 C          64.3185   83.2119   13.0494 C.3     1  UNL1        0.0002
     16 C          64.1371   82.2966   11.8749 C.3     1  UNL1        0.0000
     17 C          62.9009   81.4542   11.7645 C.3     1  UNL1        0.0000
     18 C          61.4701   80.8550   13.8486 C.3     1  UNL1        0.0000
     19 C          62.5440   80.4983   12.8640 C.3     1  UNL1        0.0000
     20 C          62.3570   90.8441   10.9074 C.3     1  UNL1        0.2312
     21 O          63.3362   90.2436   11.8721 O.3     1  UNL1       -0.4705
     22 C          64.1796   91.1336   12.7361 C.ar    1  UNL1        0.1449
     23 C          64.1238   91.0012   14.2292 C.ar    1  UNL1        0.0718
     24 C          63.3387   90.0920   15.1275 C.ar    1  UNL1        0.0467
     25 C          63.6970   90.4201   16.5466 C.ar    1  UNL1        0.1797
     26 O          64.7035   91.5321   16.5254 O.2     1  UNL1       -0.4502
     27 C          64.9673   91.8912   15.0931 C.ar    1  UNL1        0.1514
     28 C          65.8666   92.9137   14.4640 C.ar    1  UNL1        0.0753
     29 C          65.9224   93.0461   12.9709 C.ar    1  UNL1        0.1546
     30 O          66.8218   94.0686   12.3417 O.2     1  UNL1       -0.4208
     31 C          66.8776   94.2010   10.8486 C.ar    1  UNL1        0.3459
     32 O          67.7768   95.2235   10.2195 O.2     1  UNL1       -0.2445
     33 C          66.0341   93.3110    9.9846 C.ar    1  UNL1        0.0825
     34 C          65.1348   92.2885   10.6138 C.ar    1  UNL1        0.0127
     35 C          65.0790   92.1561   12.1070 C.ar    1  UNL1        0.0690
@<TRIPOS>BOND
     1    18    19    1
     2    19    17    1
     3    17    16    1
     4    16    15    1
     5    15    14    1
     6    14    13    1
     7    13     6    1
     8     6     7    1
     9     7     8    1
    10     8     5    1
    11     5     4    1
    12     4     1    1
    13     1     2    1
    14     1     3    2
    15     3    20    1
    16    20    21    1
    17    21    22    1
    18    22    23   ar
    19    23    24   ar
    20    24    25   ar
    21    25    26   ar
    22    26    27   ar
    23    27    28   ar
    24    28    29   ar
    25    29    30   ar
    26    30    31   ar
    27    31    32    2
    28    31    33   ar
    29    33    34   ar
    30    34    35   ar
    31     8     9    1
    32     9    10    1
    33     9    11    1
    34     9    12    1
    35    12     6    1
    36    35    22   ar
    37    27    23   ar
    38    35    29   ar
@<TRIPOS>MOLECULE
*****
 35 38 0 0 0
SMALL
GASTEIGER

@<TRIPOS>ATOM
      1 C          62.1091   90.2208   10.9787 C.2     1  UNL1       -0.0445
      2 C          60.7638   90.8513   10.7725 C.3     1  UNL1        0.0261
      3 C          62.2136   88.7504   11.2561 C.2     1  UNL1        0.0122
      4 C          63.3499   91.0607   10.9074 C.3     1  UNL1        0.0244
      5 C          64.2631   91.1517   12.0938 C.3     1  UNL1        0.0364
      6 C          66.1569   94.5372   11.9629 C.3     1  UNL1        0.2350
      7 O          65.1818   93.5581   11.3794 O.3     1  UNL1       -0.3306
      8 C          65.1145   92.3705   12.2932 C.3     1  UNL1        0.1428
      9 C          66.0481   92.6156   13.4414 C.3     1  UNL1        0.1202
     10 C          66.8835   92.5792   14.6867 C.3     1  UNL1        0.0322
     11 C          65.5784   91.2689   13.9059 C.3     1  UNL1        0.0322
     12 O          66.6923   93.9547   13.2372 O.3     1  UNL1       -0.3329
     13 C          66.5310   95.8656   11.3751 C.3     1  UNL1        0.0613
     14 C          65.8040   96.3839   10.1698 C.3     1  UNL1        0.0052
     15 C          66.3399   96.1107    8.7957 C.3     1  UNL1        0.0002
     16 C          67.6585   95.4153    8.6295 C.3     1  UNL1        0.0000
     17 C          67.7029   93.9294    8.4291 C.3     1  UNL1        0.0000
     18 C          68.0833   91.9880   10.1131 C.3     1  UNL1        0.0000
     19 C          68.6316   93.0887    9.2542 C.3     1  UNL1        0.0000
     20 C          60.9728   87.9105   11.3274 C.3     1  UNL1        0.2312
     21 O          61.0426   86.5140   11.8703 O.3     1  UNL1       -0.4705
     22 C          62.0360   85.5401   11.3093 C.ar    1  UNL1        0.1449
     23 C          62.9766   84.8159   12.2263 C.ar    1  UNL1        0.0718
     24 C          63.1570   84.8564   13.7149 C.ar    1  UNL1        0.0467
     25 C          64.2619   83.9075   14.0738 C.ar    1  UNL1        0.1797
     26 O          64.7643   83.2806   12.8071 O.2     1  UNL1       -0.4502
     27 C          63.9699   83.8420   11.6653 C.ar    1  UNL1        0.1514
     28 C          64.0227   83.5923   10.1872 C.ar    1  UNL1        0.0753
     29 C          63.0822   84.3164    9.2701 C.ar    1  UNL1        0.1546
     30 O          63.1350   84.0666    7.7920 O.2     1  UNL1       -0.4208
     31 C          62.1945   84.7907    6.8749 C.ar    1  UNL1        0.3459
     32 O          62.2473   84.5410    5.3968 O.2     1  UNL1       -0.2445
     33 C          61.2011   85.7647    7.4359 C.ar    1  UNL1        0.0825
     34 C          61.1483   86.0144    8.9140 C.ar    1  UNL1        0.0127
     35 C          62.0889   85.2902    9.8311 C.ar    1  UNL1        0.0690
@<TRIPOS>BOND
     1    18    19    1
     2    19    17    1
     3    17    16    1
     4    16    15    1
     5    15    14    1
     6    14    13    1
     7    13     6    1
     8     6     7    1
     9     7     8    1
    10     8     5    1
    11     5     4    1
    12     4     1    1
    13     1     2    1
    14     1     3    2
    15     3    20    1
    16    20    21    1
    17    21    22    1
    18    22    23   ar
    19    23    24   ar
    20    24    25   ar
    21    25    26   ar
    22    26    27   ar
    23    27    28   ar
    24    28    29   ar
    25    29    30   ar
    26    30    31   ar
    27    31    32    2
    28    31    33   ar
    29    33    34   ar
    30    34    35   ar
    31     8     9    1
    32     9    10    1
    33     9    11    1
    34     9    12    1
    35    12     6    1
    36    35    22   ar
    37    27    23   ar
    38    35    29   ar
@<TRIPOS>MOLECULE
*****
 35 38 0 0 0
SMALL
GASTEIGER

@<TRIPOS>ATOM
      1 C          61.7325   87.2447    9.8458 C.2     1  UNL1       -0.0445
      2 C          60.7913   86.7412   10.8997 C.3     1  UNL1        0.0261
      3 C          62.6819   86.2976    9.1738 C.2     1  UNL1        0.0122
      4 C          61.7243   88.6952    9.4640 C.3     1  UNL1        0.0244
      5 C          61.5327   89.7467   10.5164 C.3     1  UNL1        0.0364
      6 C          64.6339   92.0044   11.1085 C.3     1  UNL1        0.2350
      7 O          63.5820   91.4342   10.2038 O.3     1  UNL1       -0.3306
      8 C          62.7107   90.5267   11.0205 C.3     1  UNL1        0.1428
      9 C          63.2240   90.5360   12.4299 C.3     1  UNL1        0.1202
     10 C          63.5010   90.3460   13.8918 C.3     1  UNL1        0.0322
     11 C          62.0933   89.5830   12.6812 C.3     1  UNL1        0.0322
     12 O          64.4127   91.4493   12.4842 O.3     1  UNL1       -0.3329
     13 C          65.7170   92.9617   10.7076 C.3     1  UNL1        0.0613
     14 C          66.2710   93.9299   11.7104 C.3     1  UNL1        0.0052
     15 C          66.4588   93.5067   13.1371 C.3     1  UNL1        0.0002
     16 C          67.3797   92.3695   13.4671 C.3     1  UNL1        0.0000
     17 C          67.3584   91.7607   14.8378 C.3     1  UNL1        0.0000
     18 C          68.8235   93.5884   15.9615 C.3     1  UNL1        0.0000
     19 C          67.7004   92.5969   16.0353 C.3     1  UNL1        0.0000
     20 C          62.6902   84.8470    9.5556 C.3     1  UNL1        0.2312
     21 O          63.8042   84.2994   10.3977 O.3     1  UNL1       -0.4705
     22 C          63.4913   83.4791   11.6139 C.ar    1  UNL1        0.1449
     23 C          63.2012   82.0139   11.4762 C.ar    1  UNL1        0.0718
     24 C          63.1509   81.1087   10.2811 C.ar    1  UNL1        0.0467
     25 C          62.8071   79.7290   10.7589 C.ar    1  UNL1        0.1797
     26 O          62.6448   79.7815   12.2492 O.2     1  UNL1       -0.4502
     27 C          62.8884   81.1937   12.6925 C.ar    1  UNL1        0.1514
     28 C          62.8657   81.8386   14.0466 C.ar    1  UNL1        0.0753
     29 C          63.1559   83.3038   14.1843 C.ar    1  UNL1        0.1546
     30 O          63.1332   83.9487   15.5385 O.2     1  UNL1       -0.4208
     31 C          63.4234   85.4139   15.6762 C.ar    1  UNL1        0.3459
     32 O          63.4008   86.0589   17.0303 O.2     1  UNL1       -0.2445
     33 C          63.7362   86.2343   14.4599 C.ar    1  UNL1        0.0825
     34 C          63.7589   85.5893   13.1059 C.ar    1  UNL1        0.0127
     35 C          63.4687   84.1240   12.9681 C.ar    1  UNL1        0.0690
@<TRIPOS>BOND
     1    18    19    1
     2    19    17    1
     3    17    16    1
     4    16    15    1
     5    15    14    1
     6    14    13    1
     7    13     6    1
     8     6     7    1
     9     7     8    1
    10     8     5    1
    11     5     4    1
    12     4     1    1
    13     1     2    1
    14     1     3    2
    15     3    20    1
    16    20    21    1
    17    21    22    1
    18    22    23   ar
    19    23    24   ar
    20    24    25   ar
    21    25    26   ar
    22    26    27   ar
    23    27    28   ar
    24    28    29   ar
    25    29    30   ar
    26    30    31   ar
    27    31    32    2
    28    31    33   ar
    29    33    34   ar
    30    34    35   ar
    31     8     9    1
    32     9    10    1
    33     9    11    1
    34     9    12    1
    35    12     6    1
    36    35    22   ar
    37    27    23   ar
    38    35    29   ar
