@<TRIPOS>MOLECULE
*****
 28 33 0 0 0
SMALL
GASTEIGER

@<TRIPOS>ATOM
      1 C          64.1330   90.0677   13.2363 C.3     1  UNL1        0.0578
      2 C          63.2747   90.5487   12.1041 C.3     1  UNL1        0.0163
      3 C          62.6170   89.3534   11.4809 C.3     1  UNL1        0.0058
      4 C          63.0688   88.1336   12.2279 C.3     1  UNL1        0.0240
      5 C          63.6630   87.0870   13.1232 C.3     1  UNL1        0.0301
      6 C          63.4516   85.6023   13.0949 C.ar    1  UNL1       -0.0255
      7 C          64.2388   84.9160   14.1716 C.ar    1  UNL1       -0.0046
      8 C          64.1682   83.4248   14.3176 C.ar    1  UNL1       -0.0003
      9 C          63.3103   82.6199   13.3869 C.ar    1  UNL1       -0.0003
     10 C          62.5231   83.3062   12.3102 C.ar    1  UNL1       -0.0042
     11 C          62.5937   84.7973   12.1642 C.ar    1  UNL1       -0.0217
     12 C          61.7354   85.2784   11.0320 C.3     1  UNL1        0.0520
     13 C          61.5229   86.6831   10.5508 C.ar    1  UNL1       -0.0218
     14 C          60.5810   86.7263    9.3842 C.ar    1  UNL1       -0.0042
     15 C          60.2326   88.0401    8.7498 C.ar    1  UNL1       -0.0003
     16 C          60.8260   89.3107    9.2820 C.ar    1  UNL1       -0.0003
     17 C          61.7679   89.2676   10.4486 C.ar    1  UNL1       -0.0046
     18 C          62.1163   87.9538   11.0830 C.ar    1  UNL1       -0.0261
     19 C          64.0058   88.5750   13.3128 C.3     1  UNL1        0.0203
     20 C          66.8182   92.2348   15.0137 C.3     1  UNL1        0.0481
     21 C          66.9879   92.9977   16.2941 C.3     1  UNL1        0.0084
     22 C          65.7053   92.2701   16.0189 C.3     1  UNL1        0.0225
     23 C          64.5641   91.4626   15.4754 C.3     1  UNL1        0.0724
     24 N          64.9715   90.9282   14.1344 N.3     1  UNL1       -0.2736
     25 C          66.3647   91.4055   13.8490 C.3     1  UNL1        0.0772
     26 O          69.1023   93.4556   15.2199 O.co2   1  UNL1       -0.5491
     27 C          68.1759   92.5526   14.4607 C.2     1  UNL1        0.0510
     28 O          68.6071   91.9673   13.1487 O.co2   1  UNL1       -0.5491
@<TRIPOS>UNITY_ATOM_ATTR
26 1
charge -1
@<TRIPOS>BOND
     1    26    27   ar
     2    27    28   ar
     3    20    27    1
     4    20    21    1
     5    22    21    1
     6    22    23    1
     7    23    24    1
     8    24     1    1
     9     1     2    1
    10     2     3    1
    11     4     3    1
    12     4     5    1
    13     5     6    1
    14     6     7   ar
    15     7     8   ar
    16     8     9   ar
    17     9    10   ar
    18    10    11   ar
    19    11    12    1
    20    12    13    1
    21    13    14   ar
    22    14    15   ar
    23    15    16   ar
    24    16    17   ar
    25    17    18   ar
    26     4    19    1
    27    24    25    1
    28    22    20    1
    29    19     1    1
    30    25    20    1
    31    18     4    1
    32    11     6   ar
    33    18    13   ar
@<TRIPOS>MOLECULE
*****
 28 33 0 0 0
SMALL
GASTEIGER

@<TRIPOS>ATOM
      1 C          62.7190   84.9651   12.6439 C.3     1  UNL1        0.0578
      2 C          63.5019   85.9962   13.4015 C.3     1  UNL1        0.0163
      3 C          63.2564   87.3291   12.7589 C.3     1  UNL1        0.0058
      4 C          62.3218   87.1218   11.6041 C.3     1  UNL1        0.0240
      5 C          61.3942   86.6557   10.5215 C.3     1  UNL1        0.0301
      6 C          60.7203   87.4660    9.4541 C.ar    1  UNL1       -0.0255
      7 C          59.8698   86.6055    8.5675 C.ar    1  UNL1       -0.0046
      8 C          59.1068   87.2216    7.4326 C.ar    1  UNL1       -0.0003
      9 C          59.1942   88.6983    7.1842 C.ar    1  UNL1       -0.0003
     10 C          60.0447   89.5589    8.0708 C.ar    1  UNL1       -0.0042
     11 C          60.8077   88.9427    9.2057 C.ar    1  UNL1       -0.0217
     12 C          61.5906   89.9738    9.9634 C.3     1  UNL1        0.0520
     13 C          62.4794   89.7829   11.1566 C.ar    1  UNL1       -0.0218
     14 C          63.0764   91.0824   11.6089 C.ar    1  UNL1       -0.0042
     15 C          63.9989   91.1128   12.7913 C.ar    1  UNL1       -0.0003
     16 C          64.3243   89.8436   13.5214 C.ar    1  UNL1       -0.0003
     17 C          63.7273   88.5439   13.0691 C.ar    1  UNL1       -0.0046
     18 C          62.8048   88.5136   11.8867 C.ar    1  UNL1       -0.0261
     19 C          61.9897   85.6608   11.5330 C.3     1  UNL1        0.0203
     20 C          62.6940   81.0839   12.6779 C.3     1  UNL1        0.0481
     21 C          62.5640   79.9637   13.6669 C.3     1  UNL1        0.0084
     22 C          62.5129   81.3877   14.1356 C.3     1  UNL1        0.0225
     23 C          62.5002   82.8786   14.3002 C.3     1  UNL1        0.0724
     24 N          62.6735   83.4962   12.9443 N.3     1  UNL1       -0.2736
     25 C          62.7932   82.3870   11.9416 C.3     1  UNL1        0.0772
     26 O          62.6297   78.7284   11.5837 O.co2   1  UNL1       -0.5491
     27 C          62.8409   80.2089   11.4684 C.2     1  UNL1        0.0510
     28 O          63.1990   80.8145   10.1436 O.co2   1  UNL1       -0.5491
@<TRIPOS>UNITY_ATOM_ATTR
26 1
charge -1
@<TRIPOS>BOND
     1    26    27   ar
     2    27    28   ar
     3    20    27    1
     4    20    21    1
     5    22    21    1
     6    22    23    1
     7    23    24    1
     8    24     1    1
     9     1     2    1
    10     2     3    1
    11     4     3    1
    12     4     5    1
    13     5     6    1
    14     6     7   ar
    15     7     8   ar
    16     8     9   ar
    17     9    10   ar
    18    10    11   ar
    19    11    12    1
    20    12    13    1
    21    13    14   ar
    22    14    15   ar
    23    15    16   ar
    24    16    17   ar
    25    17    18   ar
    26     4    19    1
    27    24    25    1
    28    22    20    1
    29    19     1    1
    30    25    20    1
    31    18     4    1
    32    11     6   ar
    33    18    13   ar
@<TRIPOS>MOLECULE
*****
 28 33 0 0 0
SMALL
GASTEIGER

@<TRIPOS>ATOM
      1 C          64.2500   88.7241   14.0998 C.3     1  UNL1        0.0578
      2 C          64.5849   87.3416   14.5757 C.3     1  UNL1        0.0163
      3 C          63.9297   86.3609   13.6490 C.3     1  UNL1        0.0058
      4 C          63.1898   87.1374   12.6003 C.3     1  UNL1        0.0240
      5 C          62.5418   88.1304   11.6816 C.3     1  UNL1        0.0301
      6 C          61.6895   87.8707   10.4749 C.ar    1  UNL1       -0.0255
      7 C          61.2394   89.1511    9.8361 C.ar    1  UNL1       -0.0046
      8 C          60.3743   89.1144    8.6112 C.ar    1  UNL1       -0.0003
      9 C          59.9594   87.7974    8.0252 C.ar    1  UNL1       -0.0003
     10 C          60.4095   86.5171    8.6640 C.ar    1  UNL1       -0.0042
     11 C          61.2745   86.5538    9.8889 C.ar    1  UNL1       -0.0217
     12 C          61.6095   85.1713   10.3648 C.3     1  UNL1        0.0520
     13 C          62.4421   84.7642   11.5443 C.ar    1  UNL1       -0.0218
     14 C          62.5271   83.2716   11.6662 C.ar    1  UNL1       -0.0042
     15 C          63.3152   82.6540   12.7831 C.ar    1  UNL1       -0.0003
     16 C          64.0185   83.5290   13.7779 C.ar    1  UNL1       -0.0003
     17 C          63.9336   85.0216   13.6560 C.ar    1  UNL1       -0.0046
     18 C          63.1454   85.6392   12.5391 C.ar    1  UNL1       -0.0261
     19 C          63.3877   88.5979   12.8789 C.3     1  UNL1        0.0203
     20 C          65.9823   92.0014   15.2505 C.3     1  UNL1        0.0481
     21 C          65.7774   93.0940   16.2576 C.3     1  UNL1        0.0084
     22 C          64.7955   91.9636   16.1670 C.3     1  UNL1        0.0225
     23 C          64.0022   90.7314   15.8476 C.3     1  UNL1        0.0724
     24 N          64.6986   90.0075   14.7335 N.3     1  UNL1       -0.2736
     25 C          65.9224   90.7925   14.3645 C.3     1  UNL1        0.0772
     26 O          67.6529   92.2018   13.2709 O.co2   1  UNL1       -0.5491
     27 C          67.2489   92.5580   14.6709 C.2     1  UNL1        0.0510
     28 O          68.1115   93.4706   15.4913 O.co2   1  UNL1       -0.5491
@<TRIPOS>UNITY_ATOM_ATTR
26 1
charge -1
@<TRIPOS>BOND
     1    26    27   ar
     2    27    28   ar
     3    20    27    1
     4    20    21    1
     5    22    21    1
     6    22    23    1
     7    23    24    1
     8    24     1    1
     9     1     2    1
    10     2     3    1
    11     4     3    1
    12     4     5    1
    13     5     6    1
    14     6     7   ar
    15     7     8   ar
    16     8     9   ar
    17     9    10   ar
    18    10    11   ar
    19    11    12    1
    20    12    13    1
    21    13    14   ar
    22    14    15   ar
    23    15    16   ar
    24    16    17   ar
    25    17    18   ar
    26     4    19    1
    27    24    25    1
    28    22    20    1
    29    19     1    1
    30    25    20    1
    31    18     4    1
    32    11     6   ar
    33    18    13   ar
@<TRIPOS>MOLECULE
*****
 28 33 0 0 0
SMALL
GASTEIGER

@<TRIPOS>ATOM
      1 C          63.4276   89.8243   12.4155 C.3     1  UNL1        0.0578
      2 C          62.5407   90.2706   11.2913 C.3     1  UNL1        0.0163
      3 C          61.9859   89.0469   10.6247 C.3     1  UNL1        0.0058
      4 C          62.5300   87.8441   11.3370 C.3     1  UNL1        0.0240
      5 C          63.2010   86.8206   12.2043 C.3     1  UNL1        0.0301
      6 C          63.1106   85.3253   12.1273 C.ar    1  UNL1       -0.0255
      7 C          63.9437   84.6706   13.1890 C.ar    1  UNL1       -0.0046
      8 C          63.9930   83.1746   13.2873 C.ar    1  UNL1       -0.0003
      9 C          63.2092   82.3334   12.3239 C.ar    1  UNL1       -0.0003
     10 C          62.3761   82.9882   11.2623 C.ar    1  UNL1       -0.0042
     11 C          62.3268   84.4841   11.1639 C.ar    1  UNL1       -0.0217
     12 C          61.4398   84.9306   10.0397 C.3     1  UNL1        0.0520
     13 C          61.1175   86.3283    9.6010 C.ar    1  UNL1       -0.0218
     14 C          60.1830   86.3328    8.4278 C.ar    1  UNL1       -0.0042
     15 C          59.7335   87.6340    7.8319 C.ar    1  UNL1       -0.0003
     16 C          60.2187   88.9305    8.4093 C.ar    1  UNL1       -0.0003
     17 C          61.1533   88.9261    9.5826 C.ar    1  UNL1       -0.0046
     18 C          61.6027   87.6249   10.1784 C.ar    1  UNL1       -0.0261
     19 C          63.4210   88.3246   12.4438 C.3     1  UNL1        0.0203
     20 C          64.9050   91.8974   15.3456 C.3     1  UNL1        0.0481
     21 C          66.0159   92.8752   15.5901 C.3     1  UNL1        0.0084
     22 C          65.8102   92.3010   14.2197 C.3     1  UNL1        0.0225
     23 C          65.3669   91.5735   12.9851 C.3     1  UNL1        0.0724
     24 N          64.1878   90.7203   13.3479 N.3     1  UNL1       -0.2736
     25 C          63.9023   90.9205   14.8069 C.3     1  UNL1        0.0772
     26 O          63.3638   90.8799   17.1730 O.co2   1  UNL1       -0.5491
     27 C          64.3872   91.8931   16.7535 C.2     1  UNL1        0.0510
     28 O          64.8928   92.9020   17.7416 O.co2   1  UNL1       -0.5491
@<TRIPOS>UNITY_ATOM_ATTR
26 1
charge -1
@<TRIPOS>BOND
     1    26    27   ar
     2    27    28   ar
     3    20    27    1
     4    20    21    1
     5    22    21    1
     6    22    23    1
     7    23    24    1
     8    24     1    1
     9     1     2    1
    10     2     3    1
    11     4     3    1
    12     4     5    1
    13     5     6    1
    14     6     7   ar
    15     7     8   ar
    16     8     9   ar
    17     9    10   ar
    18    10    11   ar
    19    11    12    1
    20    12    13    1
    21    13    14   ar
    22    14    15   ar
    23    15    16   ar
    24    16    17   ar
    25    17    18   ar
    26     4    19    1
    27    24    25    1
    28    22    20    1
    29    19     1    1
    30    25    20    1
    31    18     4    1
    32    11     6   ar
    33    18    13   ar
@<TRIPOS>MOLECULE
*****
 28 33 0 0 0
SMALL
GASTEIGER

@<TRIPOS>ATOM
      1 C          64.6453   89.6146   13.6956 C.3     1  UNL1        0.0578
      2 C          64.9101   88.3664   14.4841 C.3     1  UNL1        0.0163
      3 C          64.1159   87.2524   13.8692 C.3     1  UNL1        0.0058
      4 C          63.3603   87.8122   12.7006 C.3     1  UNL1        0.0240
      5 C          62.7220   88.6044   11.5984 C.3     1  UNL1        0.0301
      6 C          61.7650   88.1357   10.5426 C.ar    1  UNL1       -0.0255
      7 C          61.3659   89.2558    9.6284 C.ar    1  UNL1       -0.0046
      8 C          60.4117   88.9990    8.4999 C.ar    1  UNL1       -0.0003
      9 C          59.8567   87.6221    8.2856 C.ar    1  UNL1       -0.0003
     10 C          60.2558   86.5019    9.1999 C.ar    1  UNL1       -0.0042
     11 C          61.2100   86.7587   10.3284 C.ar    1  UNL1       -0.0217
     12 C          61.4748   85.5105   11.1170 C.3     1  UNL1        0.0520
     13 C          62.3601   85.3309   12.3145 C.ar    1  UNL1       -0.0218
     14 C          62.3416   83.9124   12.8019 C.ar    1  UNL1       -0.0042
     15 C          63.1623   83.5183   13.9940 C.ar    1  UNL1       -0.0003
     16 C          64.0013   84.5426   14.6988 C.ar    1  UNL1       -0.0003
     17 C          64.0198   85.9611   14.2114 C.ar    1  UNL1       -0.0046
     18 C          63.1992   86.3552   13.0192 C.ar    1  UNL1       -0.0261
     19 C          63.6874   89.2721   12.5933 C.3     1  UNL1        0.0203
     20 C          66.1684   93.1842   13.6359 C.3     1  UNL1        0.0481
     21 C          66.6526   94.2221   14.6045 C.3     1  UNL1        0.0084
     22 C          66.1156   92.9162   15.1108 C.3     1  UNL1        0.0225
     23 C          65.5387   91.5465   15.3127 C.3     1  UNL1        0.0724
     24 N          65.2348   90.9678   13.9626 N.3     1  UNL1       -0.2736
     25 C          65.6240   91.9801   12.9262 C.3     1  UNL1        0.0772
     26 O          66.1000   95.4353   12.3407 O.co2   1  UNL1       -0.5491
     27 C          66.4564   93.9794   12.3970 C.2     1  UNL1        0.0510
     28 O          67.1009   93.3187   11.2146 O.co2   1  UNL1       -0.5491
@<TRIPOS>UNITY_ATOM_ATTR
26 1
charge -1
@<TRIPOS>BOND
     1    26    27   ar
     2    27    28   ar
     3    20    27    1
     4    20    21    1
     5    22    21    1
     6    22    23    1
     7    23    24    1
     8    24     1    1
     9     1     2    1
    10     2     3    1
    11     4     3    1
    12     4     5    1
    13     5     6    1
    14     6     7   ar
    15     7     8   ar
    16     8     9   ar
    17     9    10   ar
    18    10    11   ar
    19    11    12    1
    20    12    13    1
    21    13    14   ar
    22    14    15   ar
    23    15    16   ar
    24    16    17   ar
    25    17    18   ar
    26     4    19    1
    27    24    25    1
    28    22    20    1
    29    19     1    1
    30    25    20    1
    31    18     4    1
    32    11     6   ar
    33    18    13   ar
@<TRIPOS>MOLECULE
*****
 28 33 0 0 0
SMALL
GASTEIGER

@<TRIPOS>ATOM
      1 C          62.5343   84.7592   11.7469 C.3     1  UNL1        0.0578
      2 C          61.6217   84.8932   10.5641 C.3     1  UNL1        0.0163
      3 C          61.4752   86.3536   10.2547 C.3     1  UNL1        0.0058
      4 C          62.2974   87.1222   11.2463 C.3     1  UNL1        0.0240
      5 C          63.1815   87.6489   12.3375 C.3     1  UNL1        0.0301
      6 C          63.5237   89.0737   12.6583 C.ar    1  UNL1       -0.0255
      7 C          64.4474   89.1636   13.8367 C.ar    1  UNL1       -0.0046
      8 C          64.9135   90.5035   14.3237 C.ar    1  UNL1       -0.0003
      9 C          64.4559   91.7536   13.6324 C.ar    1  UNL1       -0.0003
     10 C          63.5322   91.6637   12.4540 C.ar    1  UNL1       -0.0042
     11 C          63.0660   90.3238   11.9670 C.ar    1  UNL1       -0.0217
     12 C          62.1533   90.4577   10.7842 C.3     1  UNL1        0.0520
     13 C          61.4728   89.3748   10.0005 C.ar    1  UNL1       -0.0218
     14 C          60.6426   89.9425    8.8877 C.ar    1  UNL1       -0.0042
     15 C          59.8766   89.0259    7.9805 C.ar    1  UNL1       -0.0003
     16 C          59.9407   87.5415    8.1862 C.ar    1  UNL1       -0.0003
     17 C          60.7709   86.9737    9.2991 C.ar    1  UNL1       -0.0046
     18 C          61.5369   87.8903   10.2062 C.ar    1  UNL1       -0.0261
     19 C          62.9520   86.1368   12.1685 C.3     1  UNL1        0.0203
     20 C          62.8871   81.2748   13.4202 C.3     1  UNL1        0.0481
     21 C          63.9682   80.3811   13.9515 C.3     1  UNL1        0.0084
     22 C          64.3200   81.7145   13.3613 C.3     1  UNL1        0.0225
     23 C          64.3622   83.0732   12.7273 C.3     1  UNL1        0.0724
     24 N          62.9555   83.4734   12.3944 N.3     1  UNL1       -0.2736
     25 C          62.0437   82.3619   12.8227 C.3     1  UNL1        0.0772
     26 O          61.8760   78.8819   13.4582 O.co2   1  UNL1       -0.5491
     27 C          61.7493   80.3502   13.7375 C.2     1  UNL1        0.0510
     28 O          60.4850   80.8939   14.3340 O.co2   1  UNL1       -0.5491
@<TRIPOS>UNITY_ATOM_ATTR
26 1
charge -1
@<TRIPOS>BOND
     1    26    27   ar
     2    27    28   ar
     3    20    27    1
     4    20    21    1
     5    22    21    1
     6    22    23    1
     7    23    24    1
     8    24     1    1
     9     1     2    1
    10     2     3    1
    11     4     3    1
    12     4     5    1
    13     5     6    1
    14     6     7   ar
    15     7     8   ar
    16     8     9   ar
    17     9    10   ar
    18    10    11   ar
    19    11    12    1
    20    12    13    1
    21    13    14   ar
    22    14    15   ar
    23    15    16   ar
    24    16    17   ar
    25    17    18   ar
    26     4    19    1
    27    24    25    1
    28    22    20    1
    29    19     1    1
    30    25    20    1
    31    18     4    1
    32    11     6   ar
    33    18    13   ar
