@<TRIPOS>MOLECULE
*****
 24 25 0 0 0
SMALL
GASTEIGER

@<TRIPOS>ATOM
      1 C          63.9652   90.5017   15.5055 C.2     1  UNL1        0.1987
      2 O          63.4773   91.2689   16.6985 O.2     1  UNL1       -0.2865
      3 C          64.8278   91.1770   14.4810 C.ar    1  UNL1        0.0758
      4 C          66.2346   91.5678   14.8250 C.ar    1  UNL1        0.0463
      5 C          67.0972   92.2431   13.8005 C.ar    1  UNL1        0.1727
      6 C          66.5531   92.5278   12.4319 C.ar    1  UNL1        0.1754
      7 C          65.1464   92.1371   12.0879 C.ar    1  UNL1        0.0767
      8 C          64.2837   91.4617   13.1125 C.ar    1  UNL1        0.1399
      9 O          62.8769   91.0709   12.7685 O.3     1  UNL1       -0.5053
     10 H          62.5371   91.2488   11.9136 H       1  UNL1        0.2922
     11 O          68.5040   92.6339   14.1445 O.3     1  UNL1       -0.4684
     12 C          68.8456   93.0508   15.5443 C.3     1  UNL1        0.2526
     13 O          67.4158   93.2032   11.4074 O.3     1  UNL1       -0.4683
     14 C          67.5166   92.6379   10.0217 C.3     1  UNL1        0.2526
     15 C          64.4620   88.1476   14.5249 C.2     1  UNL1        0.0034
     16 C          63.5904   89.0590   15.3370 C.2     1  UNL1        0.0421
     17 C          63.0776   84.7966   12.9111 C.ar    1  UNL1        0.1387
     18 C          63.3376   83.8198   14.0193 C.ar    1  UNL1        0.0369
     19 C          63.9724   84.2855   15.2961 C.ar    1  UNL1        0.0031
     20 C          64.3471   85.7281   15.4646 C.ar    1  UNL1        0.0002
     21 C          64.0872   86.7049   14.3564 C.ar    1  UNL1        0.0031
     22 C          63.4524   86.2391   13.0796 C.ar    1  UNL1        0.0369
     23 C          61.9091   85.3321   10.6533 C.3     1  UNL1        0.2525
     24 O          62.4429   84.3308   11.6343 O.3     1  UNL1       -0.4714
@<TRIPOS>BOND
     1    23    24    1
     2    24    17    1
     3    17    18   ar
     4    18    19   ar
     5    19    20   ar
     6    20    21   ar
     7    21    15    1
     8    15    16    2
     9    16     1    1
    10     1     2    2
    11     1     3    1
    12     3     4   ar
    13     4     5   ar
    14     5    11    1
    15    11    12    1
    16     5     6   ar
    17     6    13    1
    18    13    14    1
    19     6     7   ar
    20     7     8   ar
    21     8     9    1
    22    21    22   ar
    23    22    17   ar
    24     8     3   ar
    25     9    10    1
@<TRIPOS>MOLECULE
*****
 24 25 0 0 0
SMALL
GASTEIGER

@<TRIPOS>ATOM
      1 C          63.8894   86.4709   15.1947 C.2     1  UNL1        0.1987
      2 O          63.6697   86.6848   16.6630 O.2     1  UNL1       -0.2865
      3 C          63.6909   85.1095   14.5971 C.ar    1  UNL1        0.0758
      4 C          64.3950   84.7386   13.3256 C.ar    1  UNL1        0.0463
      5 C          64.1965   83.3772   12.7280 C.ar    1  UNL1        0.1727
      6 C          63.2938   82.3867   13.4019 C.ar    1  UNL1        0.1754
      7 C          62.5897   82.7576   14.6734 C.ar    1  UNL1        0.0767
      8 C          62.7883   84.1190   15.2710 C.ar    1  UNL1        0.1399
      9 O          62.0842   84.4899   16.5425 O.3     1  UNL1       -0.5053
     10 H          61.5203   83.8712   16.9634 H       1  UNL1        0.2922
     11 O          64.9006   83.0063   11.4565 O.3     1  UNL1       -0.4684
     12 C          64.1713   83.0756   10.1477 C.3     1  UNL1        0.2526
     13 O          63.0953   81.0253   12.8043 O.3     1  UNL1       -0.4683
     14 C          62.1739   80.0433   13.4651 C.3     1  UNL1        0.2526
     15 C          64.1753   89.0265   14.8240 C.2     1  UNL1        0.0034
     16 C          64.3076   87.6185   14.3239 C.2     1  UNL1        0.0421
     17 C          66.1818   92.1739   13.4758 C.ar    1  UNL1        0.1387
     18 C          65.4300   92.4693   12.2119 C.ar    1  UNL1        0.0369
     19 C          64.2599   91.6170   11.8187 C.ar    1  UNL1        0.0031
     20 C          63.8417   90.4695   12.6893 C.ar    1  UNL1        0.0002
     21 C          64.5935   90.1741   13.9532 C.ar    1  UNL1        0.0031
     22 C          65.7636   91.0263   14.3465 C.ar    1  UNL1        0.0369
     23 C          67.5974   93.3422   15.3146 C.3     1  UNL1        0.2525
     24 O          67.3519   93.0261   13.8690 O.3     1  UNL1       -0.4714
@<TRIPOS>BOND
     1    23    24    1
     2    24    17    1
     3    17    18   ar
     4    18    19   ar
     5    19    20   ar
     6    20    21   ar
     7    21    15    1
     8    15    16    2
     9    16     1    1
    10     1     2    2
    11     1     3    1
    12     3     4   ar
    13     4     5   ar
    14     5    11    1
    15    11    12    1
    16     5     6   ar
    17     6    13    1
    18    13    14    1
    19     6     7   ar
    20     7     8   ar
    21     8     9    1
    22    21    22   ar
    23    22    17   ar
    24     8     3   ar
    25     9    10    1
@<TRIPOS>MOLECULE
*****
 24 25 0 0 0
SMALL
GASTEIGER

@<TRIPOS>ATOM
      1 C          61.7920   88.3731   10.6557 C.2     1  UNL1        0.1987
      2 O          60.4183   88.7378   10.1763 O.2     1  UNL1       -0.2865
      3 C          62.6430   89.3988   11.3440 C.ar    1  UNL1        0.0758
      4 C          63.1406   89.1483   12.7367 C.ar    1  UNL1        0.0463
      5 C          63.9916   90.1740   13.4250 C.ar    1  UNL1        0.1727
      6 C          64.3450   91.4503   12.7205 C.ar    1  UNL1        0.1754
      7 C          63.8475   91.7008   11.3278 C.ar    1  UNL1        0.0767
      8 C          62.9964   90.6750   10.6395 C.ar    1  UNL1        0.1399
      9 O          62.4988   90.9256    9.2468 O.3     1  UNL1       -0.5053
     10 H          62.7196   91.7228    8.8068 H       1  UNL1        0.2922
     11 O          64.4892   89.9234   14.8177 O.3     1  UNL1       -0.4684
     12 C          63.5155   89.6331   15.9211 C.3     1  UNL1        0.2526
     13 O          65.1960   92.4760   13.4088 O.3     1  UNL1       -0.4683
     14 C          66.6869   92.4446   13.2465 C.3     1  UNL1        0.2526
     15 C          62.1986   85.9653   11.5429 C.2     1  UNL1        0.0034
     16 C          62.3148   86.9827   10.4469 C.2     1  UNL1        0.0421
     17 C          62.9726   82.1199   12.1464 C.ar    1  UNL1        0.1387
     18 C          63.7667   81.7941   10.9163 C.ar    1  UNL1        0.0369
     19 C          64.0382   82.8587    9.8951 C.ar    1  UNL1        0.0031
     20 C          63.5155   84.2491   10.1039 C.ar    1  UNL1        0.0002
     21 C          62.7213   84.5748   11.3340 C.ar    1  UNL1        0.0031
     22 C          62.4499   83.5103   12.3552 C.ar    1  UNL1        0.0369
     23 C          61.5252   81.1833   14.0901 C.3     1  UNL1        0.2525
     24 O          62.7011   81.0553   13.1677 O.3     1  UNL1       -0.4714
@<TRIPOS>BOND
     1    23    24    1
     2    24    17    1
     3    17    18   ar
     4    18    19   ar
     5    19    20   ar
     6    20    21   ar
     7    21    15    1
     8    15    16    2
     9    16     1    1
    10     1     2    2
    11     1     3    1
    12     3     4   ar
    13     4     5   ar
    14     5    11    1
    15    11    12    1
    16     5     6   ar
    17     6    13    1
    18    13    14    1
    19     6     7   ar
    20     7     8   ar
    21     8     9    1
    22    21    22   ar
    23    22    17   ar
    24     8     3   ar
    25     9    10    1
@<TRIPOS>MOLECULE
*****
 24 25 0 0 0
SMALL
GASTEIGER

@<TRIPOS>ATOM
      1 C          61.3088   89.3681   11.7053 C.2     1  UNL1        0.1987
      2 O          60.2295   89.6527   12.7074 O.2     1  UNL1       -0.2865
      3 C          61.0541   88.4087   10.5807 C.ar    1  UNL1        0.0758
      4 C          60.1977   88.8230    9.4210 C.ar    1  UNL1        0.0463
      5 C          59.9430   87.8636    8.2964 C.ar    1  UNL1        0.1727
      6 C          60.5446   86.4900    8.3315 C.ar    1  UNL1        0.1754
      7 C          61.4010   86.0757    9.4913 C.ar    1  UNL1        0.0767
      8 C          61.6557   87.0352   10.6159 C.ar    1  UNL1        0.1399
      9 O          62.5120   86.6209   11.7757 O.3     1  UNL1       -0.5053
     10 H          62.8879   85.7629   11.7977 H       1  UNL1        0.2922
     11 O          59.0866   88.2779    7.1366 O.3     1  UNL1       -0.4684
     12 C          59.3303   89.5922    6.4561 C.3     1  UNL1        0.2526
     13 O          60.2899   85.5306    7.2069 O.3     1  UNL1       -0.4683
     14 C          61.4320   84.7817    6.5869 C.3     1  UNL1        0.2526
     15 C          63.1901   90.3822   13.1827 C.2     1  UNL1        0.0034
     16 C          62.6429   90.0429   11.8279 C.2     1  UNL1        0.0421
     17 C          66.3124   92.6930   12.3697 C.ar    1  UNL1        0.1387
     18 C          67.1922   92.4065   13.5504 C.ar    1  UNL1        0.0369
     19 C          66.7379   91.4451   14.6084 C.ar    1  UNL1        0.0031
     20 C          65.4039   90.7704   14.4859 C.ar    1  UNL1        0.0002
     21 C          64.5242   91.0569   13.3053 C.ar    1  UNL1        0.0031
     22 C          64.9784   92.0183   12.2472 C.ar    1  UNL1        0.0369
     23 C          66.2862   95.0751   11.3330 C.3     1  UNL1        0.2525
     24 O          66.7667   93.6543   11.3117 O.3     1  UNL1       -0.4714
@<TRIPOS>BOND
     1    23    24    1
     2    24    17    1
     3    17    18   ar
     4    18    19   ar
     5    19    20   ar
     6    20    21   ar
     7    21    15    1
     8    15    16    2
     9    16     1    1
    10     1     2    2
    11     1     3    1
    12     3     4   ar
    13     4     5   ar
    14     5    11    1
    15    11    12    1
    16     5     6   ar
    17     6    13    1
    18    13    14    1
    19     6     7   ar
    20     7     8   ar
    21     8     9    1
    22    21    22   ar
    23    22    17   ar
    24     8     3   ar
    25     9    10    1
@<TRIPOS>MOLECULE
*****
 24 25 0 0 0
SMALL
GASTEIGER

@<TRIPOS>ATOM
      1 C          63.6851   87.6611   15.8457 C.2     1  UNL1        0.1987
      2 O          63.2233   88.1824   17.1742 O.2     1  UNL1       -0.2865
      3 C          63.5212   86.2079   15.5122 C.ar    1  UNL1        0.0758
      4 C          64.2254   85.6275   14.3217 C.ar    1  UNL1        0.0463
      5 C          64.0615   84.1743   13.9882 C.ar    1  UNL1        0.1727
      6 C          63.1933   83.3014   14.8452 C.ar    1  UNL1        0.1754
      7 C          62.4891   83.8818   16.0357 C.ar    1  UNL1        0.0767
      8 C          62.6531   85.3351   16.3692 C.ar    1  UNL1        0.1399
      9 O          61.9489   85.9154   17.5597 O.3     1  UNL1       -0.5053
     10 H          61.4066   85.3702   18.0950 H       1  UNL1        0.2922
     11 O          64.7657   83.5939   12.7977 O.3     1  UNL1       -0.4684
     12 C          64.0177   83.3777   11.5157 C.3     1  UNL1        0.2526
     13 O          63.0294   81.8482   14.5117 O.3     1  UNL1       -0.4683
     14 C          61.6816   81.3146   14.1264 C.3     1  UNL1        0.2526
     15 C          64.3636   90.0654   15.1322 C.2     1  UNL1        0.0034
     16 C          64.3109   88.5930   14.8507 C.2     1  UNL1        0.0421
     17 C          64.9964   92.1049   11.7870 C.ar    1  UNL1        0.1387
     18 C          66.2407   92.8611   12.1472 C.ar    1  UNL1        0.0369
     19 C          66.8594   92.6854   13.5023 C.ar    1  UNL1        0.0031
     20 C          66.2337   91.7535   14.4973 C.ar    1  UNL1        0.0002
     21 C          64.9894   90.9973   14.1372 C.ar    1  UNL1        0.0031
     22 C          64.3707   91.1730   12.7820 C.ar    1  UNL1        0.0369
     23 C          63.2082   91.4337   10.0258 C.3     1  UNL1        0.2525
     24 O          64.3777   92.2806   10.4319 O.3     1  UNL1       -0.4714
@<TRIPOS>BOND
     1    23    24    1
     2    24    17    1
     3    17    18   ar
     4    18    19   ar
     5    19    20   ar
     6    20    21   ar
     7    21    15    1
     8    15    16    2
     9    16     1    1
    10     1     2    2
    11     1     3    1
    12     3     4   ar
    13     4     5   ar
    14     5    11    1
    15    11    12    1
    16     5     6   ar
    17     6    13    1
    18    13    14    1
    19     6     7   ar
    20     7     8   ar
    21     8     9    1
    22    21    22   ar
    23    22    17   ar
    24     8     3   ar
    25     9    10    1
@<TRIPOS>MOLECULE
*****
 24 25 0 0 0
SMALL
GASTEIGER

@<TRIPOS>ATOM
      1 C          61.1468   90.2060   10.4671 C.2     1  UNL1        0.1987
      2 O          59.8906   90.9527   10.8053 O.2     1  UNL1       -0.2865
      3 C          61.0706   88.9165    9.7047 C.ar    1  UNL1        0.0758
      4 C          61.8718   87.7308   10.1544 C.ar    1  UNL1        0.0463
      5 C          61.7955   86.4413    9.3919 C.ar    1  UNL1        0.1727
      6 C          60.9181   86.3375    8.1797 C.ar    1  UNL1        0.1754
      7 C          60.1170   87.5232    7.7300 C.ar    1  UNL1        0.0767
      8 C          60.1932   88.8127    8.4925 C.ar    1  UNL1        0.1399
      9 O          59.3921   89.9984    8.0428 O.3     1  UNL1       -0.5053
     10 H          58.8440   89.9336    7.2856 H       1  UNL1        0.2922
     11 O          62.5967   85.2556    9.8417 O.3     1  UNL1       -0.4684
     12 C          62.4979   84.7780   11.2601 C.3     1  UNL1        0.2526
     13 O          60.8419   85.0480    7.4172 O.3     1  UNL1       -0.4683
     14 C          61.9262   84.6857    6.4462 C.3     1  UNL1        0.2526
     15 C          62.9312   90.6000   12.3140 C.2     1  UNL1        0.0034
     16 C          62.4793   90.7488   10.8915 C.2     1  UNL1        0.0421
     17 C          66.3250   92.6569   12.2822 C.ar    1  UNL1        0.1387
     18 C          66.9284   92.2284   13.5869 C.ar    1  UNL1        0.0369
     19 C          66.1994   91.2571   14.4673 C.ar    1  UNL1        0.0031
     20 C          64.8670   90.7143   14.0430 C.ar    1  UNL1        0.0002
     21 C          64.2636   91.1428   12.7383 C.ar    1  UNL1        0.0031
     22 C          64.9927   92.1141   11.8579 C.ar    1  UNL1        0.0369
     23 C          66.6487   93.7899    9.9667 C.3     1  UNL1        0.2525
     24 O          67.0541   93.6281   11.4018 O.3     1  UNL1       -0.4714
@<TRIPOS>BOND
     1    23    24    1
     2    24    17    1
     3    17    18   ar
     4    18    19   ar
     5    19    20   ar
     6    20    21   ar
     7    21    15    1
     8    15    16    2
     9    16     1    1
    10     1     2    2
    11     1     3    1
    12     3     4   ar
    13     4     5   ar
    14     5    11    1
    15    11    12    1
    16     5     6   ar
    17     6    13    1
    18    13    14    1
    19     6     7   ar
    20     7     8   ar
    21     8     9    1
    22    21    22   ar
    23    22    17   ar
    24     8     3   ar
    25     9    10    1
@<TRIPOS>MOLECULE
*****
 24 25 0 0 0
SMALL
GASTEIGER

@<TRIPOS>ATOM
      1 C          62.0319   89.3507   11.1683 C.2     1  UNL1        0.1987
      2 O          60.6960   89.9166   10.7872 O.2     1  UNL1       -0.2865
      3 C          62.2366   87.8651   11.1968 C.ar    1  UNL1        0.0758
      4 C          62.9604   87.2296   12.3468 C.ar    1  UNL1        0.0463
      5 C          63.1651   85.7440   12.3753 C.ar    1  UNL1        0.1727
      6 C          62.6460   84.8936   11.2539 C.ar    1  UNL1        0.1754
      7 C          61.9221   85.5291   10.1040 C.ar    1  UNL1        0.0767
      8 C          61.7175   87.0148   10.0755 C.ar    1  UNL1        0.1399
      9 O          60.9936   87.6502    8.9255 O.3     1  UNL1       -0.5053
     10 H          60.6693   87.1191    8.2250 H       1  UNL1        0.2922
     11 O          63.8889   85.1085   13.5252 O.3     1  UNL1       -0.4684
     12 C          64.2973   85.9392   14.7055 C.3     1  UNL1        0.2526
     13 O          62.8506   83.4080   11.2824 O.3     1  UNL1       -0.4683
     14 C          64.1180   82.8150   10.7420 C.3     1  UNL1        0.2526
     15 C          63.5442   90.4746   12.9572 C.2     1  UNL1        0.0034
     16 C          63.1632   90.2706   11.5208 C.2     1  UNL1        0.0421
     17 C          66.3375   93.2759   12.6406 C.ar    1  UNL1        0.1387
     18 C          66.9378   93.2342   14.0146 C.ar    1  UNL1        0.0369
     19 C          66.4068   92.2727   15.0362 C.ar    1  UNL1        0.0031
     20 C          65.2756   91.3528   14.6837 C.ar    1  UNL1        0.0002
     21 C          64.6754   91.3945   13.3097 C.ar    1  UNL1        0.0031
     22 C          65.2064   92.3560   12.2881 C.ar    1  UNL1        0.0369
     23 C          66.5969   94.0090   10.1617 C.3     1  UNL1        0.2525
     24 O          66.8685   94.2374   11.6190 O.3     1  UNL1       -0.4714
@<TRIPOS>BOND
     1    23    24    1
     2    24    17    1
     3    17    18   ar
     4    18    19   ar
     5    19    20   ar
     6    20    21   ar
     7    21    15    1
     8    15    16    2
     9    16     1    1
    10     1     2    2
    11     1     3    1
    12     3     4   ar
    13     4     5   ar
    14     5    11    1
    15    11    12    1
    16     5     6   ar
    17     6    13    1
    18    13    14    1
    19     6     7   ar
    20     7     8   ar
    21     8     9    1
    22    21    22   ar
    23    22    17   ar
    24     8     3   ar
    25     9    10    1
@<TRIPOS>MOLECULE
*****
 24 25 0 0 0
SMALL
GASTEIGER

@<TRIPOS>ATOM
      1 C          61.9819   87.9292   11.4954 C.2     1  UNL1        0.1987
      2 O          60.5131   88.1903   11.3385 O.2     1  UNL1       -0.2865
      3 C          62.4933   86.5196   11.5314 C.ar    1  UNL1        0.0758
      4 C          63.0989   85.9734   12.7904 C.ar    1  UNL1        0.0463
      5 C          63.6104   84.5638   12.8264 C.ar    1  UNL1        0.1727
      6 C          63.5163   83.7003   11.6034 C.ar    1  UNL1        0.1754
      7 C          62.9107   84.2464   10.3445 C.ar    1  UNL1        0.0767
      8 C          62.3992   85.6561   10.3085 C.ar    1  UNL1        0.1399
      9 O          61.7937   86.2023    9.0495 O.3     1  UNL1       -0.5053
     10 H          61.7349   85.6629    8.2856 H       1  UNL1        0.2922
     11 O          64.2160   84.0176   14.0853 O.3     1  UNL1       -0.4684
     12 C          63.3415   83.3744   15.1205 C.3     1  UNL1        0.2526
     13 O          64.0278   82.2906   11.6394 O.3     1  UNL1       -0.4683
     14 C          63.1081   81.1686   12.0204 C.3     1  UNL1        0.2526
     15 C          63.3212   89.5963   12.9708 C.2     1  UNL1        0.0034
     16 C          62.9392   89.0777   11.6162 C.2     1  UNL1        0.0421
     17 C          65.9522   92.1394   14.5072 C.ar    1  UNL1        0.1387
     18 C          66.1930   93.0418   13.3334 C.ar    1  UNL1        0.0369
     19 C          65.4764   92.7957   12.0388 C.ar    1  UNL1        0.0031
     20 C          64.5192   91.6472   11.9179 C.ar    1  UNL1        0.0002
     21 C          64.2785   90.7449   13.0917 C.ar    1  UNL1        0.0031
     22 C          64.9950   90.9910   14.3863 C.ar    1  UNL1        0.0369
     23 C          67.8958   93.2478   15.8277 C.3     1  UNL1        0.2525
     24 O          66.6687   92.3855   15.8018 O.3     1  UNL1       -0.4714
@<TRIPOS>BOND
     1    23    24    1
     2    24    17    1
     3    17    18   ar
     4    18    19   ar
     5    19    20   ar
     6    20    21   ar
     7    21    15    1
     8    15    16    2
     9    16     1    1
    10     1     2    2
    11     1     3    1
    12     3     4   ar
    13     4     5   ar
    14     5    11    1
    15    11    12    1
    16     5     6   ar
    17     6    13    1
    18    13    14    1
    19     6     7   ar
    20     7     8   ar
    21     8     9    1
    22    21    22   ar
    23    22    17   ar
    24     8     3   ar
    25     9    10    1
@<TRIPOS>MOLECULE
*****
 24 25 0 0 0
SMALL
GASTEIGER

@<TRIPOS>ATOM
      1 C          63.8875   86.8102   14.8063 C.2     1  UNL1        0.1987
      2 O          63.2619   86.5877   16.1514 O.2     1  UNL1       -0.2865
      3 C          63.7646   85.7630   13.7395 C.ar    1  UNL1        0.0758
      4 C          63.0130   86.0634   12.4767 C.ar    1  UNL1        0.0463
      5 C          62.8901   85.0162   11.4098 C.ar    1  UNL1        0.1727
      6 C          63.5188   83.6684   11.6059 C.ar    1  UNL1        0.1754
      7 C          64.2704   83.3680   12.8687 C.ar    1  UNL1        0.0767
      8 C          64.3933   84.4153   13.9356 C.ar    1  UNL1        0.1399
      9 O          65.1450   84.1149   15.1984 O.3     1  UNL1       -0.5053
     10 H          65.5377   83.2730   15.3209 H       1  UNL1        0.2922
     11 O          62.1385   85.3166   10.1470 O.3     1  UNL1       -0.4684
     12 C          61.0996   86.3985   10.1318 C.3     1  UNL1        0.2526
     13 O          63.3959   82.6212   10.5390 O.3     1  UNL1       -0.4683
     14 C          63.1382   81.1926   10.9167 C.3     1  UNL1        0.2526
     15 C          63.8907   89.3161   14.1202 C.2     1  UNL1        0.0034
     16 C          64.6361   88.0800   14.5281 C.2     1  UNL1        0.0421
     17 C          65.2870   92.5056   12.2157 C.ar    1  UNL1        0.1387
     18 C          66.1363   93.1253   13.2856 C.ar    1  UNL1        0.0369
     19 C          66.2371   92.4753   14.6336 C.ar    1  UNL1        0.0031
     20 C          65.4885   91.2056   14.9118 C.ar    1  UNL1        0.0002
     21 C          64.6393   90.5859   13.8420 C.ar    1  UNL1        0.0031
     22 C          64.5385   91.2359   12.4939 C.ar    1  UNL1        0.0369
     23 C          66.4315   93.4901   10.1013 C.3     1  UNL1        0.2525
     24 O          65.1862   93.1557   10.8676 O.3     1  UNL1       -0.4714
@<TRIPOS>BOND
     1    23    24    1
     2    24    17    1
     3    17    18   ar
     4    18    19   ar
     5    19    20   ar
     6    20    21   ar
     7    21    15    1
     8    15    16    2
     9    16     1    1
    10     1     2    2
    11     1     3    1
    12     3     4   ar
    13     4     5   ar
    14     5    11    1
    15    11    12    1
    16     5     6   ar
    17     6    13    1
    18    13    14    1
    19     6     7   ar
    20     7     8   ar
    21     8     9    1
    22    21    22   ar
    23    22    17   ar
    24     8     3   ar
    25     9    10    1
