@<TRIPOS>MOLECULE
*****
 43 47 0 0 0
SMALL
GASTEIGER

@<TRIPOS>ATOM
      1 C          59.8901   89.2578    6.7120 C.2     1  UNL1        0.2461
      2 O          58.4165   89.1762    6.4440 O.2     1  UNL1       -0.2701
      3 N          60.7393   90.2275    5.9449 N.am    1  UNL1       -0.2964
      4 H          61.7065   90.2810    6.1208 H       1  UNL1        0.1501
      5 C          62.5939   89.7404   11.9319 C.3     1  UNL1        0.1304
      6 N          62.4005   88.3790   11.3325 N.ar    1  UNL1       -0.3253
      7 C          62.8364   87.0784   11.9394 C.ar    1  UNL1        0.0590
      8 C          62.4425   85.9749   11.0029 C.ar    1  UNL1       -0.0052
      9 C          61.7631   86.5934    9.8173 C.ar    1  UNL1        0.0132
     10 C          61.1647   85.9957    8.5785 C.ar    1  UNL1        0.0013
     11 C          60.5404   86.8838    7.5434 C.ar    1  UNL1        0.0046
     12 C          60.5144   88.3697    7.7471 C.ar    1  UNL1        0.0548
     13 C          61.1128   88.9674    8.9859 C.ar    1  UNL1        0.0217
     14 C          61.7371   88.0793   10.0210 C.ar    1  UNL1        0.0598
     15 C          62.6853   84.5099   11.2149 C.3     1  UNL1        0.0238
     16 C          63.5619   83.7497   10.2641 C.3     1  UNL1        0.0044
     17 C          63.8047   82.2847   10.4761 C.3     1  UNL1        0.0003
     18 C          63.1710   81.5799   11.6387 C.3     1  UNL1        0.0000
     19 C          62.2945   82.3401   12.5894 C.3     1  UNL1        0.0003
     20 C          62.0517   83.8051   12.3774 C.3     1  UNL1        0.0044
     21 C          63.5424   86.9107   13.2523 C.ar    1  UNL1        0.0562
     22 C          63.9334   85.6072   13.8829 C.ar    1  UNL1        0.0452
     23 C          64.6139   85.9080   15.1854 C.ar    1  UNL1        0.1798
     24 O          64.6435   87.3975   15.3597 O.2     1  UNL1       -0.4473
     25 C          63.9813   88.0173   14.1649 C.ar    1  UNL1        0.1811
     26 C          60.1149   91.1156    4.9097 C.3     1  UNL1        0.1262
     27 C          61.4400   91.2412    4.2182 C.3     1  UNL1        0.0290
     28 C          58.7898   90.9899    5.6012 C.3     1  UNL1        0.0290
     29 C          59.4905   92.0036    3.8746 C.2     1  UNL1        0.2419
     30 O          58.0357   92.3566    3.9683 O.2     1  UNL1       -0.2731
     31 N          60.3210   92.5387    2.7459 N.am    1  UNL1       -0.2826
     32 H          61.2759   92.3071    2.6845 H       1  UNL1        0.1549
     33 C          59.6966   93.4268    1.7108 C.ar    1  UNL1        0.0503
     34 C          59.9562   94.9040    1.7348 C.ar    1  UNL1        0.0147
     35 C          59.3319   95.7921    0.6997 C.ar    1  UNL1        0.0013
     36 C          58.4479   95.2031   -0.3594 C.ar    1  UNL1        0.0001
     37 C          58.1882   93.7259   -0.3833 C.ar    1  UNL1        0.0013
     38 C          58.8126   92.8378    0.6518 C.ar    1  UNL1        0.0147
     39 C          57.8235   96.0911   -1.3944 C.2     1  UNL1        0.0012
     40 C          56.8587   95.5189   -2.3903 C.2     1  UNL1        0.0151
     41 C          56.2343   96.4070   -3.4254 C.2     1  UNL1        0.0729
     42 O          54.8080   96.8462   -3.2751 O.co2   1  UNL1       -0.5446
     43 O          57.0364   96.8560   -4.6108 O.co2   1  UNL1       -0.5446
@<TRIPOS>UNITY_ATOM_ATTR
42 1
charge -1
@<TRIPOS>BOND
     1     5     6    1
     2     6     7   ar
     3     7    21    1
     4    21    22   ar
     5    22    23   ar
     6    23    24   ar
     7    24    25   ar
     8     7     8   ar
     9     8    15    1
    10    15    16    1
    11    16    17    1
    12    17    18    1
    13    18    19    1
    14    19    20    1
    15     8     9   ar
    16     9    10   ar
    17    10    11   ar
    18    11    12   ar
    19    12     1    1
    20     1     2    2
    21     1     3   am
    22     3    26    1
    23    26    27    1
    24    26    28    1
    25    26    29    1
    26    29    30    2
    27    29    31   am
    28    31    33    1
    29    33    34   ar
    30    34    35   ar
    31    35    36   ar
    32    36    39    1
    33    39    40    2
    34    40    41    1
    35    41    42   ar
    36    41    43   ar
    37    36    37   ar
    38    37    38   ar
    39    12    13   ar
    40    13    14   ar
    41    14     6   ar
    42    25    21   ar
    43    20    15    1
    44    14     9   ar
    45    38    33   ar
    46     3     4    1
    47    31    32    1
@<TRIPOS>MOLECULE
*****
 43 47 0 0 0
SMALL
GASTEIGER

@<TRIPOS>ATOM
      1 C          59.8815   89.6682    6.8213 C.2     1  UNL1        0.2461
      2 O          58.4186   89.4512    6.5703 O.2     1  UNL1       -0.2701
      3 N          60.6589   90.6144    5.9551 N.am    1  UNL1       -0.2964
      4 H          61.6190   90.7567    6.1199 H       1  UNL1        0.1501
      5 C          61.8320   84.2374    8.0434 C.3     1  UNL1        0.1304
      6 N          62.0045   85.3225    9.0645 N.ar    1  UNL1       -0.3253
      7 C          62.6431   85.1706   10.4132 C.ar    1  UNL1        0.0590
      8 C          62.6019   86.5043   11.0984 C.ar    1  UNL1       -0.0052
      9 C          61.9378   87.4805   10.1732 C.ar    1  UNL1        0.0132
     10 C          61.6217   88.9401   10.3130 C.ar    1  UNL1        0.0013
     11 C          60.9362   89.6693    9.1957 C.ar    1  UNL1        0.0046
     12 C          60.5670   88.9389    7.9386 C.ar    1  UNL1        0.0548
     13 C          60.8831   87.4793    7.7989 C.ar    1  UNL1        0.0217
     14 C          61.5686   86.7501    8.9162 C.ar    1  UNL1        0.0598
     15 C          63.1318   86.8084   12.4684 C.3     1  UNL1        0.0238
     16 C          63.3363   85.6988   13.4569 C.3     1  UNL1        0.0044
     17 C          63.8662   86.0029   14.8268 C.3     1  UNL1        0.0003
     18 C          64.1916   87.4167   15.2083 C.3     1  UNL1        0.0000
     19 C          63.9871   88.5262   14.2198 C.3     1  UNL1        0.0003
     20 C          63.4572   88.2220   12.8499 C.3     1  UNL1        0.0044
     21 C          63.2214   83.9068   10.9776 C.ar    1  UNL1        0.0562
     22 C          62.5024   82.9208   11.8498 C.ar    1  UNL1        0.0452
     23 C          63.4568   81.8118   12.1802 C.ar    1  UNL1        0.1798
     24 O          64.7658   82.1124   11.5122 O.2     1  UNL1       -0.4473
     25 C          64.6203   83.4072   10.7690 C.ar    1  UNL1        0.1811
     26 C          59.9734   91.3436    4.8377 C.3     1  UNL1        0.1262
     27 C          58.6680   91.2369    5.5688 C.3     1  UNL1        0.0290
     28 C          61.2788   91.4504    4.1067 C.3     1  UNL1        0.0290
     29 C          59.2880   92.0729    3.7205 C.2     1  UNL1        0.2419
     30 O          57.8179   92.3593    3.8024 O.2     1  UNL1       -0.2731
     31 N          60.0727   92.5157    2.5212 N.am    1  UNL1       -0.2826
     32 H          61.0376   92.3278    2.4675 H       1  UNL1        0.1549
     33 C          59.3873   93.2450    1.4039 C.ar    1  UNL1        0.0503
     34 C          59.6313   94.7116    1.2045 C.ar    1  UNL1        0.0147
     35 C          58.9460   95.4408    0.0872 C.ar    1  UNL1        0.0013
     36 C          58.0165   94.7036   -0.8307 C.ar    1  UNL1        0.0001
     37 C          57.7724   93.2371   -0.6313 C.ar    1  UNL1        0.0013
     38 C          58.4578   92.5077    0.4860 C.ar    1  UNL1        0.0147
     39 C          57.3311   95.4328   -1.9480 C.2     1  UNL1        0.0012
     40 C          56.0172   94.9354   -2.4736 C.2     1  UNL1        0.0151
     41 C          55.3318   95.6647   -3.5909 C.2     1  UNL1        0.0729
     42 O          53.9177   96.1357   -3.4229 O.co2   1  UNL1       -0.5446
     43 O          56.0606   95.9229   -4.8763 O.co2   1  UNL1       -0.5446
@<TRIPOS>UNITY_ATOM_ATTR
42 1
charge -1
@<TRIPOS>BOND
     1     5     6    1
     2     6     7   ar
     3     7    21    1
     4    21    22   ar
     5    22    23   ar
     6    23    24   ar
     7    24    25   ar
     8     7     8   ar
     9     8    15    1
    10    15    16    1
    11    16    17    1
    12    17    18    1
    13    18    19    1
    14    19    20    1
    15     8     9   ar
    16     9    10   ar
    17    10    11   ar
    18    11    12   ar
    19    12     1    1
    20     1     2    2
    21     1     3   am
    22     3    26    1
    23    26    27    1
    24    26    28    1
    25    26    29    1
    26    29    30    2
    27    29    31   am
    28    31    33    1
    29    33    34   ar
    30    34    35   ar
    31    35    36   ar
    32    36    39    1
    33    39    40    2
    34    40    41    1
    35    41    42   ar
    36    41    43   ar
    37    36    37   ar
    38    37    38   ar
    39    12    13   ar
    40    13    14   ar
    41    14     6   ar
    42    25    21   ar
    43    20    15    1
    44    14     9   ar
    45    38    33   ar
    46     3     4    1
    47    31    32    1
