@<TRIPOS>MOLECULE
*****
 37 42 0 0 0
SMALL
GASTEIGER

@<TRIPOS>ATOM
      1 C          63.5566   88.3767   13.3490 C.3     1  UNL1        0.0799
      2 C          64.4073   88.1482   14.5631 C.3     1  UNL1        0.0178
      3 C          64.8052   86.7542   14.9484 C.3     1  UNL1        0.0029
      4 C          64.3525   85.5889   14.1195 C.3     1  UNL1        0.0178
      5 C          63.5018   85.8174   12.9054 C.3     1  UNL1        0.0795
      6 N          63.1038   87.2114   12.5201 N.3     1  UNL1       -0.1583
      7 C          63.1586   89.7707   12.9637 C.3     1  UNL1        0.0237
      8 C          61.6830   89.7016   13.2235 C.3     1  UNL1        0.0019
      9 C          62.2962   90.9725   12.7151 C.3     1  UNL1        0.0019
     10 C          64.4961   90.3241   12.5700 C.3     1  UNL1        0.0866
     11 O          64.9335   91.8208   14.6481 O.2     1  UNL1       -0.2749
     12 C          64.9778   91.6150   13.1630 C.2     1  UNL1        0.2258
     13 N          65.5036   92.7000   12.2707 N.am    1  UNL1       -0.2768
     14 C          65.5479   92.4943   10.7855 C.3     1  UNL1        0.1093
     15 C          66.0737   93.5794    9.8933 C.3     1  UNL1        0.0775
     16 C          66.6519   94.8784    9.4156 C.3     1  UNL1        0.0191
     17 C          66.9044   95.7425   10.6153 C.3     1  UNL1        0.0191
     18 C          66.4823   94.9776   11.8347 C.3     1  UNL1        0.0775
     19 C          65.9852   93.9910   12.8636 C.3     1  UNL1        0.1093
     20 N          65.9689   93.6406   11.3884 N.3     1  UNL1       -0.2699
     21 C          65.4431   92.5556   12.2806 C.3     1  UNL1        0.1043
     22 C          66.2863   92.0367   13.4074 C.3     1  UNL1        0.1544
     23 O          67.7322   91.6596   13.5390 O.3     1  UNL1       -0.3805
     24 H          67.8781   90.7911   13.1325 H       1  UNL1        0.2105
     25 C          63.0491   84.6521   12.0767 C.3     1  UNL1        0.0164
     26 C          62.9236   83.9775   10.7428 C.3     1  UNL1        0.0014
     27 C          62.3906   83.3082   11.9749 C.3     1  UNL1        0.0014
     28 S          62.2531   87.4400   11.3060 S.O2    1  UNL1        0.0632
     29 O          63.0701   88.0941   10.4533 O.2     1  UNL1       -0.1528
     30 O          61.1056   86.7480   11.9798 O.2     1  UNL1       -0.1528
     31 C          61.4025   87.6686   10.0919 C.ar    1  UNL1        0.1222
     32 C          60.9486   86.5031    9.2640 C.ar    1  UNL1        0.0208
     33 C          60.0980   86.7316    8.0498 C.ar    1  UNL1        0.0128
     34 C          59.7013   88.1257    7.6636 C.ar    1  UNL1        0.0578
     35 CL         58.8507   88.3542    6.4494 Cl      1  UNL1       -0.0822
     36 C          60.1552   89.2912    8.4914 C.ar    1  UNL1        0.0128
     37 C          61.0059   89.0627    9.7056 C.ar    1  UNL1        0.0208
@<TRIPOS>BOND
     1    11    12    2
     2    12    10    1
     3    10     7    1
     4     1     7    1
     5     1     2    1
     6     2     3    1
     7     3     4    1
     8     4     5    1
     9     5    25    1
    10    25    26    1
    11    26    27    1
    12     5     6    1
    13     6    28    1
    14    28    29    2
    15    28    30    2
    16    28    31    1
    17    31    32   ar
    18    32    33   ar
    19    33    34   ar
    20    34    35    1
    21    34    36   ar
    22    36    37   ar
    23     7     8    1
    24     8     9    1
    25    12    13   am
    26    13    14    1
    27    14    15    1
    28    15    16    1
    29    16    17    1
    30    17    18    1
    31    18    19    1
    32    18    20    1
    33    20    21    1
    34    21    22    1
    35    22    23    1
    36     9     7    1
    37    19    13    1
    38     6     1    1
    39    37    31   ar
    40    20    15    1
    41    27    25    1
    42    23    24    1
@<TRIPOS>MOLECULE
*****
 37 42 0 0 0
SMALL
GASTEIGER

@<TRIPOS>ATOM
      1 C          62.7751   90.4305   11.4475 C.3     1  UNL1        0.0799
      2 C          62.9425   91.2543   10.2052 C.3     1  UNL1        0.0178
      3 C          64.1152   92.1801   10.0716 C.3     1  UNL1        0.0029
      4 C          65.1203   92.2821   11.1803 C.3     1  UNL1        0.0178
      5 C          64.9529   91.4583   12.4226 C.3     1  UNL1        0.0795
      6 N          63.7803   90.5325   12.5562 N.3     1  UNL1       -0.1583
      7 C          61.6025   89.5047   11.5811 C.3     1  UNL1        0.0237
      8 C          60.4779   90.4907   11.4677 C.3     1  UNL1        0.0019
      9 C          60.1807   89.0331   11.6592 C.3     1  UNL1        0.0019
     10 C          62.3199   88.1971   11.7410 C.3     1  UNL1        0.0866
     11 O          62.4067   87.8422    9.1688 O.2     1  UNL1       -0.2749
     12 C          62.4961   87.2890   10.5601 C.2     1  UNL1        0.2258
     13 N          62.7616   85.8279   10.7708 N.am    1  UNL1       -0.2768
     14 C          62.8510   85.2747   12.1622 C.3     1  UNL1        0.1093
     15 C          63.1166   83.8134   12.3728 C.3     1  UNL1        0.0775
     16 C          63.3847   82.3604   12.1141 C.3     1  UNL1        0.0191
     17 C          63.4348   82.1556   10.6291 C.3     1  UNL1        0.0191
     18 C          63.1977   83.4819    9.9698 C.3     1  UNL1        0.0775
     19 C          62.9379   84.9198    9.5900 C.3     1  UNL1        0.1093
     20 N          63.0011   84.5066   11.0476 N.3     1  UNL1       -0.2699
     21 C          62.7355   85.9677   10.8369 C.3     1  UNL1        0.1043
     22 C          61.8021   86.4113    9.7497 C.3     1  UNL1        0.1544
     23 O          60.3168   86.3338    9.5555 O.3     1  UNL1       -0.3805
     24 H          60.0717   85.4331    9.2919 H       1  UNL1        0.2105
     25 C          65.9581   91.5603   13.5312 C.3     1  UNL1        0.0164
     26 C          66.2732   91.6432   14.9954 C.3     1  UNL1        0.0014
     27 C          67.3839   91.6543   13.9874 C.3     1  UNL1        0.0014
     28 S          63.6128   89.7087   13.7986 S.O2    1  UNL1        0.0632
     29 O          64.2255   88.5428   13.5023 O.2     1  UNL1       -0.1528
     30 O          62.8696   90.8384   14.4475 O.2     1  UNL1       -0.1528
     31 C          63.4455   88.8849   15.0408 C.ar    1  UNL1        0.1222
     32 C          63.7074   87.4085   15.0024 C.ar    1  UNL1        0.0208
     33 C          63.5401   86.5845   16.2447 C.ar    1  UNL1        0.0128
     34 C          63.1108   87.2371   17.5253 C.ar    1  UNL1        0.0578
     35 CL         62.9435   86.4132   18.7675 Cl      1  UNL1       -0.0822
     36 C          62.8488   88.7135   17.5636 C.ar    1  UNL1        0.0128
     37 C          63.0162   89.5374   16.3214 C.ar    1  UNL1        0.0208
@<TRIPOS>BOND
     1    11    12    2
     2    12    10    1
     3    10     7    1
     4     1     7    1
     5     1     2    1
     6     2     3    1
     7     3     4    1
     8     4     5    1
     9     5    25    1
    10    25    26    1
    11    26    27    1
    12     5     6    1
    13     6    28    1
    14    28    29    2
    15    28    30    2
    16    28    31    1
    17    31    32   ar
    18    32    33   ar
    19    33    34   ar
    20    34    35    1
    21    34    36   ar
    22    36    37   ar
    23     7     8    1
    24     8     9    1
    25    12    13   am
    26    13    14    1
    27    14    15    1
    28    15    16    1
    29    16    17    1
    30    17    18    1
    31    18    19    1
    32    18    20    1
    33    20    21    1
    34    21    22    1
    35    22    23    1
    36     9     7    1
    37    19    13    1
    38     6     1    1
    39    37    31   ar
    40    20    15    1
    41    27    25    1
    42    23    24    1
@<TRIPOS>MOLECULE
*****
 37 42 0 0 0
SMALL
GASTEIGER

@<TRIPOS>ATOM
      1 C          63.4907   89.8913   13.0084 C.3     1  UNL1        0.0799
      2 C          62.3755   89.3872   12.1411 C.3     1  UNL1        0.0178
      3 C          62.1550   89.9821   10.7818 C.3     1  UNL1        0.0029
      4 C          63.0496   91.0810   10.2900 C.3     1  UNL1        0.0178
      5 C          64.1649   91.5851   11.1573 C.3     1  UNL1        0.0795
      6 N          64.3854   90.9902   12.5165 N.3     1  UNL1       -0.1583
      7 C          63.7112   89.2964   14.3676 C.3     1  UNL1        0.0237
      8 C          63.1627   90.3974   15.2259 C.3     1  UNL1        0.0019
      9 C          63.7146   89.1557   15.8610 C.3     1  UNL1        0.0019
     10 C          64.3364   87.9887   13.9813 C.3     1  UNL1        0.0866
     11 O          64.0670   86.7312   16.2388 O.2     1  UNL1       -0.2749
     12 C          63.9948   86.7409   14.7406 C.2     1  UNL1        0.2258
     13 N          63.5812   85.5029   14.0015 N.am    1  UNL1       -0.2768
     14 C          63.5090   85.5127   12.5033 C.3     1  UNL1        0.1093
     15 C          63.0954   84.2746   11.7642 C.3     1  UNL1        0.0775
     16 C          62.6539   82.8728   11.4641 C.3     1  UNL1        0.0191
     17 C          62.4984   82.1468   12.7674 C.3     1  UNL1        0.0191
     18 C          62.8437   83.0998   13.8731 C.3     1  UNL1        0.0775
     19 C          63.2397   84.2551   14.7607 C.3     1  UNL1        0.1093
     20 N          63.2127   84.4149   13.2530 N.3     1  UNL1       -0.2699
     21 C          63.6263   85.6529   13.9921 C.3     1  UNL1        0.1043
     22 C          64.7938   85.6099   14.9329 C.3     1  UNL1        0.1544
     23 O          66.2115   85.1345   14.8134 O.3     1  UNL1       -0.3805
     24 H          66.2333   84.1662   14.8653 H       1  UNL1        0.2105
     25 C          65.0594   92.6839   10.6653 C.3     1  UNL1        0.0164
     26 C          66.3504   93.1278   10.0437 C.3     1  UNL1        0.0014
     27 C          65.3182   94.1433   10.4349 C.3     1  UNL1        0.0014
     28 S          65.5006   91.4943   13.3838 S.O2    1  UNL1        0.0632
     29 O          66.5905   90.8425   12.9260 O.2     1  UNL1       -0.1528
     30 O          64.5305   92.3663   14.1243 O.2     1  UNL1       -0.1528
     31 C          66.6159   91.9983   14.2511 C.ar    1  UNL1        0.1222
     32 C          68.0260   91.9890   13.7400 C.ar    1  UNL1        0.0208
     33 C          69.1414   92.4930   14.6072 C.ar    1  UNL1        0.0128
     34 C          68.8464   93.0063   15.9855 C.ar    1  UNL1        0.0578
     35 CL         69.9617   93.5103   16.8527 Cl      1  UNL1       -0.0822
     36 C          67.4362   93.0156   16.4965 C.ar    1  UNL1        0.0128
     37 C          66.3209   92.5116   15.6293 C.ar    1  UNL1        0.0208
@<TRIPOS>BOND
     1    11    12    2
     2    12    10    1
     3    10     7    1
     4     1     7    1
     5     1     2    1
     6     2     3    1
     7     3     4    1
     8     4     5    1
     9     5    25    1
    10    25    26    1
    11    26    27    1
    12     5     6    1
    13     6    28    1
    14    28    29    2
    15    28    30    2
    16    28    31    1
    17    31    32   ar
    18    32    33   ar
    19    33    34   ar
    20    34    35    1
    21    34    36   ar
    22    36    37   ar
    23     7     8    1
    24     8     9    1
    25    12    13   am
    26    13    14    1
    27    14    15    1
    28    15    16    1
    29    16    17    1
    30    17    18    1
    31    18    19    1
    32    18    20    1
    33    20    21    1
    34    21    22    1
    35    22    23    1
    36     9     7    1
    37    19    13    1
    38     6     1    1
    39    37    31   ar
    40    20    15    1
    41    27    25    1
    42    23    24    1
@<TRIPOS>MOLECULE
*****
 37 42 0 0 0
SMALL
GASTEIGER

@<TRIPOS>ATOM
      1 C          63.5668   88.3229   13.3272 C.3     1  UNL1        0.0799
      2 C          64.4321   88.1032   14.5327 C.3     1  UNL1        0.0178
      3 C          64.8206   86.7109   14.9332 C.3     1  UNL1        0.0029
      4 C          64.3438   85.5383   14.1284 C.3     1  UNL1        0.0178
      5 C          63.4785   85.7580   12.9230 C.3     1  UNL1        0.0795
      6 N          63.0900   87.1504   12.5224 N.3     1  UNL1       -0.1583
      7 C          63.1783   89.7152   12.9267 C.3     1  UNL1        0.0237
      8 C          61.7430   89.7208   13.3625 C.3     1  UNL1        0.0019
      9 C          62.3381   90.9415   12.7258 C.3     1  UNL1        0.0019
     10 C          64.4786   90.1934   12.3517 C.3     1  UNL1        0.0866
     11 O          64.2252   92.6428   11.5236 O.2     1  UNL1       -0.2749
     12 C          64.8535   91.6426   12.4480 C.2     1  UNL1        0.2258
     13 N          65.8567   92.0914   13.4688 N.am    1  UNL1       -0.2768
     14 C          66.4851   91.0912   14.3933 C.3     1  UNL1        0.1093
     15 C          67.4884   91.5401   15.4141 C.3     1  UNL1        0.0775
     16 C          68.3973   92.4041   16.2372 C.3     1  UNL1        0.0191
     17 C          68.2509   93.8182   15.7590 C.3     1  UNL1        0.0191
     18 C          67.2516   93.8284   14.6404 C.3     1  UNL1        0.0775
     19 C          66.2317   93.5406   13.5651 C.3     1  UNL1        0.1093
     20 N          66.7803   92.4203   14.4273 N.3     1  UNL1       -0.2699
     21 C          65.7771   91.9715   13.4065 C.3     1  UNL1        0.1043
     22 C          65.8702   92.4685   11.9943 C.3     1  UNL1        0.1544
     23 O          66.8973   92.3375   10.9090 O.3     1  UNL1       -0.3805
     24 H          67.6355   92.9408   11.0880 H       1  UNL1        0.2105
     25 C          63.0018   84.5855   12.1182 C.3     1  UNL1        0.0164
     26 C          62.7751   83.9282   10.7891 C.3     1  UNL1        0.0014
     27 C          62.4029   83.2118   12.0533 C.3     1  UNL1        0.0014
     28 S          62.2247   87.3701   11.3170 S.O2    1  UNL1        0.0632
     29 O          63.0382   87.9970   10.4409 O.2     1  UNL1       -0.1528
     30 O          61.0775   86.7070   12.0197 O.2     1  UNL1       -0.1528
     31 C          61.3595   87.5898   10.1116 C.ar    1  UNL1        0.1222
     32 C          61.0121   88.9843    9.6820 C.ar    1  UNL1        0.0208
     33 C          60.1469   89.2042    8.4766 C.ar    1  UNL1        0.0128
     34 C          59.6291   88.0294    7.7007 C.ar    1  UNL1        0.0578
     35 CL         58.7639   88.2493    6.4953 Cl      1  UNL1       -0.0822
     36 C          59.9765   86.6349    8.1303 C.ar    1  UNL1        0.0128
     37 C          60.8417   86.4151    9.3357 C.ar    1  UNL1        0.0208
@<TRIPOS>BOND
     1    11    12    2
     2    12    10    1
     3    10     7    1
     4     1     7    1
     5     1     2    1
     6     2     3    1
     7     3     4    1
     8     4     5    1
     9     5    25    1
    10    25    26    1
    11    26    27    1
    12     5     6    1
    13     6    28    1
    14    28    29    2
    15    28    30    2
    16    28    31    1
    17    31    32   ar
    18    32    33   ar
    19    33    34   ar
    20    34    35    1
    21    34    36   ar
    22    36    37   ar
    23     7     8    1
    24     8     9    1
    25    12    13   am
    26    13    14    1
    27    14    15    1
    28    15    16    1
    29    16    17    1
    30    17    18    1
    31    18    19    1
    32    18    20    1
    33    20    21    1
    34    21    22    1
    35    22    23    1
    36     9     7    1
    37    19    13    1
    38     6     1    1
    39    37    31   ar
    40    20    15    1
    41    27    25    1
    42    23    24    1
@<TRIPOS>MOLECULE
*****
 37 42 0 0 0
SMALL
GASTEIGER

@<TRIPOS>ATOM
      1 C          60.7852   89.2155   10.2298 C.3     1  UNL1        0.0799
      2 C          60.0804   90.2501    9.4033 C.3     1  UNL1        0.0178
      3 C          59.6469   89.9248    8.0046 C.3     1  UNL1        0.0029
      4 C          59.9182   88.5650    7.4325 C.3     1  UNL1        0.0178
      5 C          60.6230   87.5305    8.2589 C.3     1  UNL1        0.0795
      6 N          61.0565   87.8557    9.6576 N.3     1  UNL1       -0.1583
      7 C          61.2187   89.5408   11.6284 C.3     1  UNL1        0.0237
      8 C          59.8839   89.5842   12.3114 C.3     1  UNL1        0.0019
      9 C          61.1363   89.8419   13.0956 C.3     1  UNL1        0.0019
     10 C          62.7041   89.6103   11.4313 C.3     1  UNL1        0.0866
     11 O          63.1199   91.7598   10.0325 O.2     1  UNL1       -0.2749
     12 C          63.3767   90.9404   11.2622 C.2     1  UNL1        0.2258
     13 N          64.3063   91.4508   12.3230 N.am    1  UNL1       -0.2768
     14 C          64.5632   90.6313   13.5529 C.3     1  UNL1        0.1093
     15 C          65.4928   91.1419   14.6137 C.3     1  UNL1        0.0775
     16 C          66.4510   92.0110   15.3730 C.3     1  UNL1        0.0191
     17 C          66.6910   93.2519   14.5654 C.3     1  UNL1        0.0191
     18 C          65.8812   93.1500   13.3069 C.3     1  UNL1        0.0775
     19 C          64.9789   92.7808   12.1541 C.3     1  UNL1        0.1093
     20 N          65.1406   91.8458   13.3368 N.3     1  UNL1       -0.2699
     21 C          64.2110   91.3353   12.2760 C.3     1  UNL1        0.1043
     22 C          64.4757   91.6481   10.8331 C.3     1  UNL1        0.1544
     23 O          65.6954   92.0589   10.0625 O.3     1  UNL1       -0.3805
     24 H          65.8752   92.9992   10.2190 H       1  UNL1        0.2105
     25 C          60.8942   86.1708    7.6867 C.3     1  UNL1        0.0164
     26 C          61.8580   85.0718    7.3498 C.3     1  UNL1        0.0014
     27 C          60.4004   84.9146    7.0324 C.3     1  UNL1        0.0014
     28 S          61.7612   86.8212   10.4840 S.O2    1  UNL1        0.0632
     29 O          60.8314   86.4312   11.3816 O.2     1  UNL1       -0.1528
     30 O          63.0017   87.0098    9.6622 O.2     1  UNL1       -0.1528
     31 C          62.4659   85.7866   11.3105 C.ar    1  UNL1        0.1222
     32 C          63.0352   86.1558   12.6483 C.ar    1  UNL1        0.0208
     33 C          63.7399   85.1213   13.4748 C.ar    1  UNL1        0.0128
     34 C          63.8753   83.7176   12.9636 C.ar    1  UNL1        0.0578
     35 CL         64.5800   82.6831   13.7901 Cl      1  UNL1       -0.0822
     36 C          63.3061   83.3484   11.6259 C.ar    1  UNL1        0.0128
     37 C          62.6013   84.3830   10.7993 C.ar    1  UNL1        0.0208
@<TRIPOS>BOND
     1    11    12    2
     2    12    10    1
     3    10     7    1
     4     1     7    1
     5     1     2    1
     6     2     3    1
     7     3     4    1
     8     4     5    1
     9     5    25    1
    10    25    26    1
    11    26    27    1
    12     5     6    1
    13     6    28    1
    14    28    29    2
    15    28    30    2
    16    28    31    1
    17    31    32   ar
    18    32    33   ar
    19    33    34   ar
    20    34    35    1
    21    34    36   ar
    22    36    37   ar
    23     7     8    1
    24     8     9    1
    25    12    13   am
    26    13    14    1
    27    14    15    1
    28    15    16    1
    29    16    17    1
    30    17    18    1
    31    18    19    1
    32    18    20    1
    33    20    21    1
    34    21    22    1
    35    22    23    1
    36     9     7    1
    37    19    13    1
    38     6     1    1
    39    37    31   ar
    40    20    15    1
    41    27    25    1
    42    23    24    1
@<TRIPOS>MOLECULE
*****
 37 42 0 0 0
SMALL
GASTEIGER

@<TRIPOS>ATOM
      1 C          62.9285   89.8424   12.3958 C.3     1  UNL1        0.0799
      2 C          62.6843   91.1447   11.6927 C.3     1  UNL1        0.0178
      3 C          62.1999   91.1512   10.2731 C.3     1  UNL1        0.0029
      4 C          61.9598   89.8555    9.5566 C.3     1  UNL1        0.0178
      5 C          62.2040   88.5532   10.2597 C.3     1  UNL1        0.0795
      6 N          62.6884   88.5466   11.6794 N.3     1  UNL1       -0.1583
      7 C          63.4129   89.8359   13.8154 C.3     1  UNL1        0.0237
      8 C          62.1535   89.4245   14.5185 C.3     1  UNL1        0.0019
      9 C          63.4014   89.6872   15.3080 C.3     1  UNL1        0.0019
     10 C          64.8407   90.2450   13.6054 C.3     1  UNL1        0.0866
     11 O          65.2875   92.1077   15.3606 O.2     1  UNL1       -0.2749
     12 C          65.2768   91.6419   13.9348 C.2     1  UNL1        0.2258
     13 N          65.7022   92.5730   12.8384 N.am    1  UNL1       -0.2768
     14 C          65.6914   92.1071   11.4125 C.3     1  UNL1        0.1093
     15 C          66.1168   93.0383   10.3161 C.3     1  UNL1        0.0775
     16 C          66.6011   94.2561    9.5865 C.3     1  UNL1        0.0191
     17 C          66.8590   95.3315   10.5998 C.3     1  UNL1        0.0191
     18 C          66.5342   94.7784   11.9558 C.3     1  UNL1        0.0775
     19 C          66.1382   93.9699   13.1677 C.3     1  UNL1        0.1093
     20 N          66.0755   93.3610   11.7804 N.3     1  UNL1       -0.2699
     21 C          65.6501   92.4300   12.8768 C.3     1  UNL1        0.1043
     22 C          66.5635   92.1724   14.0384 C.3     1  UNL1        0.1544
     23 O          67.9122   91.5316   14.1816 O.3     1  UNL1       -0.3805
     24 H          67.8177   90.5670   14.1417 H       1  UNL1        0.2105
     25 C          61.9639   87.2575    9.5432 C.3     1  UNL1        0.0164
     26 C          61.0168   86.2620    8.9415 C.3     1  UNL1        0.0014
     27 C          62.4947   86.0088    8.9038 C.3     1  UNL1        0.0014
     28 S          62.9326   87.2443   12.3825 S.O2    1  UNL1        0.0632
     29 O          64.2017   87.3482   12.8309 O.2     1  UNL1       -0.1528
     30 O          61.5403   86.8007   12.0443 O.2     1  UNL1       -0.1528
     31 C          63.1769   85.9420   13.0856 C.ar    1  UNL1        0.1222
     32 C          62.5857   84.6747   12.5434 C.ar    1  UNL1        0.0208
     33 C          62.8300   83.3723   13.2464 C.ar    1  UNL1        0.0128
     34 C          63.6655   83.3375   14.4917 C.ar    1  UNL1        0.0578
     35 CL         63.9097   82.0352   15.1948 Cl      1  UNL1       -0.0822
     36 C          64.2567   84.6049   15.0339 C.ar    1  UNL1        0.0128
     37 C          64.0124   85.9072   14.3309 C.ar    1  UNL1        0.0208
@<TRIPOS>BOND
     1    11    12    2
     2    12    10    1
     3    10     7    1
     4     1     7    1
     5     1     2    1
     6     2     3    1
     7     3     4    1
     8     4     5    1
     9     5    25    1
    10    25    26    1
    11    26    27    1
    12     5     6    1
    13     6    28    1
    14    28    29    2
    15    28    30    2
    16    28    31    1
    17    31    32   ar
    18    32    33   ar
    19    33    34   ar
    20    34    35    1
    21    34    36   ar
    22    36    37   ar
    23     7     8    1
    24     8     9    1
    25    12    13   am
    26    13    14    1
    27    14    15    1
    28    15    16    1
    29    16    17    1
    30    17    18    1
    31    18    19    1
    32    18    20    1
    33    20    21    1
    34    21    22    1
    35    22    23    1
    36     9     7    1
    37    19    13    1
    38     6     1    1
    39    37    31   ar
    40    20    15    1
    41    27    25    1
    42    23    24    1
@<TRIPOS>MOLECULE
*****
 37 42 0 0 0
SMALL
GASTEIGER

@<TRIPOS>ATOM
      1 C          59.9500   96.0792   -2.5810 C.3     1  UNL1        0.0799
      2 C          59.4872   96.8504   -3.7815 C.3     1  UNL1        0.0178
      3 C          60.2035   96.7006   -5.0909 C.3     1  UNL1        0.0029
      4 C          61.3825   95.7797   -5.1997 C.3     1  UNL1        0.0178
      5 C          61.8453   95.0085   -3.9992 C.3     1  UNL1        0.0795
      6 N          61.1290   95.1583   -2.6898 N.3     1  UNL1       -0.1583
      7 C          59.2337   96.2290   -1.2716 C.3     1  UNL1        0.0237
      8 C          60.3468   96.7737   -0.4266 C.3     1  UNL1        0.0019
      9 C          58.9904   96.5499    0.1733 C.3     1  UNL1        0.0019
     10 C          57.8717   95.7362   -1.6619 C.3     1  UNL1        0.0866
     11 O          57.8218   93.4061   -0.5137 O.2     1  UNL1       -0.2749
     12 C          57.5966   94.2629   -1.7241 C.2     1  UNL1        0.2258
     13 N          57.0962   93.6466   -2.9968 N.am    1  UNL1       -0.2768
     14 C          56.8710   94.5035   -4.2072 C.3     1  UNL1        0.1093
     15 C          56.3706   93.8871   -5.4799 C.3     1  UNL1        0.0775
     16 C          55.8858   92.8851   -6.4855 C.3     1  UNL1        0.0191
     17 C          55.8570   91.5399   -5.8226 C.3     1  UNL1        0.0191
     18 C          56.3240   91.7103   -4.4073 C.3     1  UNL1        0.0775
     19 C          56.8210   92.1734   -3.0591 C.3     1  UNL1        0.1093
     20 N          56.6414   93.1610   -4.1956 N.3     1  UNL1       -0.2699
     21 C          57.1417   93.7774   -2.9229 C.3     1  UNL1        0.1043
     22 C          56.2822   93.7622   -1.6937 C.3     1  UNL1        0.1544
     23 O          54.8024   93.8228   -1.4560 O.3     1  UNL1       -0.3805
     24 H          54.4944   94.7360   -1.5659 H       1  UNL1        0.2105
     25 C          63.0243   94.0877   -4.1081 C.3     1  UNL1        0.0164
     26 C          64.5043   93.8823   -4.2401 C.3     1  UNL1        0.0014
     27 C          63.5865   92.6982   -4.1648 C.3     1  UNL1        0.0014
     28 S          61.5917   94.3872   -1.4893 S.O2    1  UNL1        0.0632
     29 O          60.8000   93.2938   -1.4784 O.2     1  UNL1       -0.1528
     30 O          62.6137   95.4469   -1.2026 O.2     1  UNL1       -0.1528
     31 C          62.0544   93.6159   -0.2888 C.ar    1  UNL1        0.1222
     32 C          63.4937   93.6722    0.1295 C.ar    1  UNL1        0.0208
     33 C          63.9565   92.9010    1.3299 C.ar    1  UNL1        0.0128
     34 C          62.9799   92.0736    2.1120 C.ar    1  UNL1        0.0578
     35 CL         63.4427   91.3024    3.3125 Cl      1  UNL1       -0.0822
     36 C          61.5406   92.0174    1.6937 C.ar    1  UNL1        0.0128
     37 C          61.0778   92.7886    0.4932 C.ar    1  UNL1        0.0208
@<TRIPOS>BOND
     1    11    12    2
     2    12    10    1
     3    10     7    1
     4     1     7    1
     5     1     2    1
     6     2     3    1
     7     3     4    1
     8     4     5    1
     9     5    25    1
    10    25    26    1
    11    26    27    1
    12     5     6    1
    13     6    28    1
    14    28    29    2
    15    28    30    2
    16    28    31    1
    17    31    32   ar
    18    32    33   ar
    19    33    34   ar
    20    34    35    1
    21    34    36   ar
    22    36    37   ar
    23     7     8    1
    24     8     9    1
    25    12    13   am
    26    13    14    1
    27    14    15    1
    28    15    16    1
    29    16    17    1
    30    17    18    1
    31    18    19    1
    32    18    20    1
    33    20    21    1
    34    21    22    1
    35    22    23    1
    36     9     7    1
    37    19    13    1
    38     6     1    1
    39    37    31   ar
    40    20    15    1
    41    27    25    1
    42    23    24    1
@<TRIPOS>MOLECULE
*****
 37 42 0 0 0
SMALL
GASTEIGER

@<TRIPOS>ATOM
      1 C          60.4949   88.7844    9.5256 C.3     1  UNL1        0.0799
      2 C          59.7269   89.7273    8.6475 C.3     1  UNL1        0.0178
      3 C          59.3712   89.3260    7.2466 C.3     1  UNL1        0.0029
      4 C          59.7833   87.9818    6.7240 C.3     1  UNL1        0.0178
      5 C          60.5513   87.0388    7.6022 C.3     1  UNL1        0.0795
      6 N          60.9070   87.4402    9.0030 N.3     1  UNL1       -0.1583
      7 C          60.8506   89.1857   10.9265 C.3     1  UNL1        0.0237
      8 C          59.5477   88.9083   11.6158 C.3     1  UNL1        0.0019
      9 C          60.7109   89.4422   12.3978 C.3     1  UNL1        0.0019
     10 C          62.2773   89.6025   10.7237 C.3     1  UNL1        0.0866
     11 O          63.1344   88.9207   13.0796 O.2     1  UNL1       -0.2749
     12 C          63.1595   89.8588   11.9095 C.2     1  UNL1        0.2258
     13 N          64.0668   91.0532   11.9250 N.am    1  UNL1       -0.2768
     14 C          64.0919   91.9913   10.7547 C.3     1  UNL1        0.1093
     15 C          64.9992   93.1857   10.7703 C.3     1  UNL1        0.0775
     16 C          66.0151   94.1999   11.2054 C.3     1  UNL1        0.0191
     17 C          66.5099   93.8063   12.5655 C.3     1  UNL1        0.0191
     18 C          65.8000   92.5487   12.9712 C.3     1  UNL1        0.0775
     19 C          64.9491   91.3095   13.1107 C.3     1  UNL1        0.1093
     20 N          64.8663   92.1652   11.8616 N.3     1  UNL1       -0.2699
     21 C          63.9590   90.9708   11.8461 C.3     1  UNL1        0.1043
     22 C          63.4757   90.3793   13.1370 C.3     1  UNL1        0.1544
     23 O          62.9648   90.9594   14.4225 O.3     1  UNL1       -0.3805
     24 H          63.7102   91.2946   14.9448 H       1  UNL1        0.2105
     25 C          60.9634   85.6947    7.0795 C.3     1  UNL1        0.0164
     26 C          62.0412   84.7299    6.6827 C.3     1  UNL1        0.0014
     27 C          60.5995   84.3313    6.5708 C.3     1  UNL1        0.0014
     28 S          61.6749   86.4972    9.8812 S.O2    1  UNL1        0.0632
     29 O          60.7397   85.9896   10.7119 O.2     1  UNL1       -0.1528
     30 O          62.9374   86.8434    9.1489 O.2     1  UNL1       -0.1528
     31 C          62.4428   85.5542   10.7594 C.ar    1  UNL1        0.1222
     32 C          63.2097   84.4183   10.1499 C.ar    1  UNL1        0.0208
     33 C          63.9775   83.4753   11.0281 C.ar    1  UNL1        0.0128
     34 C          63.9784   83.6683   12.5156 C.ar    1  UNL1        0.0578
     35 CL         64.7463   82.7253   13.3937 Cl      1  UNL1       -0.0822
     36 C          63.2116   84.8042   13.1250 C.ar    1  UNL1        0.0128
     37 C          62.4437   85.7472   12.2469 C.ar    1  UNL1        0.0208
@<TRIPOS>BOND
     1    11    12    2
     2    12    10    1
     3    10     7    1
     4     1     7    1
     5     1     2    1
     6     2     3    1
     7     3     4    1
     8     4     5    1
     9     5    25    1
    10    25    26    1
    11    26    27    1
    12     5     6    1
    13     6    28    1
    14    28    29    2
    15    28    30    2
    16    28    31    1
    17    31    32   ar
    18    32    33   ar
    19    33    34   ar
    20    34    35    1
    21    34    36   ar
    22    36    37   ar
    23     7     8    1
    24     8     9    1
    25    12    13   am
    26    13    14    1
    27    14    15    1
    28    15    16    1
    29    16    17    1
    30    17    18    1
    31    18    19    1
    32    18    20    1
    33    20    21    1
    34    21    22    1
    35    22    23    1
    36     9     7    1
    37    19    13    1
    38     6     1    1
    39    37    31   ar
    40    20    15    1
    41    27    25    1
    42    23    24    1
@<TRIPOS>MOLECULE
*****
 37 42 0 0 0
SMALL
GASTEIGER

@<TRIPOS>ATOM
      1 C          64.1550   90.8133   12.6954 C.3     1  UNL1        0.0799
      2 C          63.6092   89.8134   13.6713 C.3     1  UNL1        0.0178
      3 C          64.2235   89.6826   15.0335 C.3     1  UNL1        0.0029
      4 C          65.3834   90.5517   15.4197 C.3     1  UNL1        0.0178
      5 C          65.9292   91.5516   14.4438 C.3     1  UNL1        0.0795
      6 N          65.3149   91.6823   13.0816 N.3     1  UNL1       -0.1583
      7 C          63.5407   90.9441   11.3332 C.3     1  UNL1        0.0237
      8 C          63.9647   92.3412   10.9893 C.3     1  UNL1        0.0019
      9 C          63.1478   91.5443   10.0159 C.3     1  UNL1        0.0019
     10 C          62.9034   89.5923   11.2039 C.3     1  UNL1        0.0866
     11 O          60.4783   90.4736   10.8998 O.2     1  UNL1       -0.2749
     12 C          61.5409   89.4611   10.5903 C.2     1  UNL1        0.2258
     13 N          61.2411   88.3175    9.6673 N.am    1  UNL1       -0.2768
     14 C          62.3037   87.3050    9.3577 C.3     1  UNL1        0.1093
     15 C          62.0038   86.1613    8.4346 C.3     1  UNL1        0.0775
     16 C          61.2860   85.2308    7.5025 C.3     1  UNL1        0.0191
     17 C          59.8860   85.7396    7.3270 C.3     1  UNL1        0.0191
     18 C          59.7383   86.9845    8.1506 C.3     1  UNL1        0.0775
     19 C          59.8787   88.1862    9.0537 C.3     1  UNL1        0.1093
     20 N          61.0474   87.2451    8.8352 N.3     1  UNL1       -0.2699
     21 C          61.3472   88.3888    9.7583 C.3     1  UNL1        0.1043
     22 C          60.3721   88.7576   10.8368 C.3     1  UNL1        0.1544
     23 O          59.8746   88.0676   12.0723 O.3     1  UNL1       -0.3805
     24 H          59.2261   87.3899   11.8252 H       1  UNL1        0.2105
     25 C          67.0891   92.4205   14.8301 C.3     1  UNL1        0.0164
     26 C          68.5484   92.7555   14.7386 C.3     1  UNL1        0.0014
     27 C          67.6392   93.5906   15.5906 C.3     1  UNL1        0.0014
     28 S          65.8607   92.6822   12.1057 S.O2    1  UNL1        0.0632
     29 O          65.3172   93.8534   12.4997 O.2     1  UNL1       -0.1528
     30 O          66.6191   91.5903   11.4111 O.2     1  UNL1       -0.1528
     31 C          66.4064   93.6822   11.1298 C.ar    1  UNL1        0.1222
     32 C          67.1893   93.2167    9.9380 C.ar    1  UNL1        0.0208
     33 C          67.7351   94.2166    8.9621 C.ar    1  UNL1        0.0128
     34 C          67.4978   95.6819    9.1780 C.ar    1  UNL1        0.0578
     35 CL         68.0436   96.6818    8.2021 Cl      1  UNL1       -0.0822
     36 C          66.7150   96.1473   10.3698 C.ar    1  UNL1        0.0128
     37 C          66.1692   95.1475   11.3457 C.ar    1  UNL1        0.0208
@<TRIPOS>BOND
     1    11    12    2
     2    12    10    1
     3    10     7    1
     4     1     7    1
     5     1     2    1
     6     2     3    1
     7     3     4    1
     8     4     5    1
     9     5    25    1
    10    25    26    1
    11    26    27    1
    12     5     6    1
    13     6    28    1
    14    28    29    2
    15    28    30    2
    16    28    31    1
    17    31    32   ar
    18    32    33   ar
    19    33    34   ar
    20    34    35    1
    21    34    36   ar
    22    36    37   ar
    23     7     8    1
    24     8     9    1
    25    12    13   am
    26    13    14    1
    27    14    15    1
    28    15    16    1
    29    16    17    1
    30    17    18    1
    31    18    19    1
    32    18    20    1
    33    20    21    1
    34    21    22    1
    35    22    23    1
    36     9     7    1
    37    19    13    1
    38     6     1    1
    39    37    31   ar
    40    20    15    1
    41    27    25    1
    42    23    24    1
