@<TRIPOS>MOLECULE
*****
 34 39 0 0 0
SMALL
GASTEIGER

@<TRIPOS>ATOM
      1 N          61.2489   92.4847    2.9264 N.pl3   1  UNL1       -0.3046
      2 C          59.8259   92.8550    3.2228 C.3     1  UNL1        0.1081
      3 C          59.0617   92.1116    4.2781 C.3     1  UNL1        0.0938
      4 N          59.7205   90.9980    5.0369 N.3     1  UNL1       -0.2695
      5 C          61.1436   90.6278    4.7405 C.3     1  UNL1        0.0938
      6 C          61.9078   91.3711    3.6853 C.3     1  UNL1        0.1081
      7 C          59.7399   93.7741   -3.6546 C.3     1  UNL1        0.0521
      8 C          60.3082   93.6376   -2.2732 C.ar    1  UNL1        0.0593
      9 C          59.5441   92.8943   -1.2180 C.ar    1  UNL1        0.0148
     10 C          60.1123   92.7577    0.1635 C.ar    1  UNL1        0.0039
     11 C          61.4447   93.3645    0.4898 C.ar    1  UNL1        0.0310
     12 C          62.0130   93.2280    1.8712 C.ar    1  UNL1        0.0493
     13 C          63.3455   93.8349    2.1974 C.ar    1  UNL1        0.0146
     14 C          64.1096   94.5782    1.1422 C.ar    1  UNL1        0.0028
     15 C          63.5413   94.7147   -0.2392 C.ar    1  UNL1        0.0192
     16 C          62.2089   94.1079   -0.5655 C.ar    1  UNL1        0.0821
     17 N          61.6407   94.2444   -1.9470 N.ar    1  UNL1       -0.2496
     18 C          58.9564   90.2547    6.0921 C.3     1  UNL1        0.0770
     19 C          59.5223   90.1227    7.4750 C.3     1  UNL1        0.0468
     20 C          59.9239   88.7744    7.9955 C.ar    1  UNL1        0.0146
     21 C          59.4622   87.5316    7.2938 C.ar    1  UNL1       -0.0011
     22 C          59.8637   86.1834    7.8143 C.ar    1  UNL1        0.0014
     23 C          60.7270   86.0779    9.0364 C.ar    1  UNL1        0.0206
     24 C          61.1888   87.3206    9.7381 C.ar    1  UNL1        0.0986
     25 C          60.7872   88.6689    9.2176 C.ar    1  UNL1        0.1512
     26 O          61.2489   89.9117    9.9193 O.3     1  UNL1       -0.4662
     27 C          62.1122   89.8062   11.1414 C.3     1  UNL1        0.2688
     28 C          62.5138   88.4579   11.6619 C.ar    1  UNL1        0.1683
     29 N          63.3510   88.0437   12.8355 N.ar    1  UNL1       -0.2315
     30 C          63.4067   86.5449   12.8592 C.ar    1  UNL1        0.0727
     31 C          64.1370   85.7056   13.8653 C.3     1  UNL1        0.0533
     32 C          62.6039   86.0329   11.7002 C.ar    1  UNL1        0.0565
     33 C          62.3905   84.5916   11.3438 C.3     1  UNL1        0.0517
     34 N          62.0521   87.2151   10.9602 N.ar    1  UNL1       -0.2920
@<TRIPOS>BOND
     1     7     8    1
     2     8     9   ar
     3     9    10   ar
     4    10    11   ar
     5    11    12   ar
     6    12     1    1
     7     1     2    1
     8     2     3    1
     9     3     4    1
    10     4    18    1
    11    18    19    1
    12    19    20    1
    13    20    21   ar
    14    21    22   ar
    15    22    23   ar
    16    23    24   ar
    17    24    25   ar
    18    25    26    1
    19    26    27    1
    20    27    28    1
    21    28    29   ar
    22    29    30   ar
    23    30    31    1
    24    30    32   ar
    25    32    33    1
    26    32    34   ar
    27     4     5    1
    28     5     6    1
    29    12    13   ar
    30    13    14   ar
    31    14    15   ar
    32    15    16   ar
    33    16    17   ar
    34    17     8   ar
    35    16    11   ar
    36     6     1    1
    37    25    20   ar
    38    34    28   ar
    39    34    24    1
@<TRIPOS>MOLECULE
*****
 34 39 0 0 0
SMALL
GASTEIGER

@<TRIPOS>ATOM
      1 N          64.3568   89.6830   14.5460 N.pl3   1  UNL1       -0.3046
      2 C          63.4060   89.8373   15.6958 C.3     1  UNL1        0.1081
      3 C          62.9528   88.6296   16.4616 C.3     1  UNL1        0.0938
      4 N          63.4506   87.2678   16.0775 N.3     1  UNL1       -0.2695
      5 C          64.4014   87.1135   14.9276 C.3     1  UNL1        0.0938
      6 C          64.8545   88.3211   14.1619 C.3     1  UNL1        0.1081
      7 C          69.1359   94.4038   16.0037 C.3     1  UNL1        0.0521
      8 C          68.0544   93.5255   15.4478 C.ar    1  UNL1        0.0593
      9 C          67.6013   92.3179   16.2135 C.ar    1  UNL1        0.0148
     10 C          66.5198   91.4396   15.6577 C.ar    1  UNL1        0.0039
     11 C          65.8913   91.7689   14.3361 C.ar    1  UNL1        0.0310
     12 C          64.8098   90.8906   13.7803 C.ar    1  UNL1        0.0493
     13 C          64.1814   91.2200   12.4586 C.ar    1  UNL1        0.0146
     14 C          64.6345   92.4276   11.6929 C.ar    1  UNL1        0.0028
     15 C          65.7160   93.3059   12.2488 C.ar    1  UNL1        0.0192
     16 C          66.3444   92.9766   13.5703 C.ar    1  UNL1        0.0821
     17 N          67.4259   93.8549   14.1262 N.ar    1  UNL1       -0.2496
     18 C          62.9975   86.0602   16.8432 C.3     1  UNL1        0.0770
     19 C          62.2011   84.9912   16.1554 C.3     1  UNL1        0.0468
     20 C          62.7922   84.2439   14.9968 C.ar    1  UNL1        0.0146
     21 C          63.6053   83.0069   15.2384 C.ar    1  UNL1       -0.0011
     22 C          64.1963   82.2597   14.0799 C.ar    1  UNL1        0.0014
     23 C          63.9743   82.7496   12.6796 C.ar    1  UNL1        0.0206
     24 C          63.1612   83.9867   12.4379 C.ar    1  UNL1        0.0986
     25 C          62.5702   84.7338   13.5965 C.ar    1  UNL1        0.1512
     26 O          61.7570   85.9710   13.3549 O.3     1  UNL1       -0.4662
     27 C          61.5350   86.4609   11.9546 C.3     1  UNL1        0.2688
     28 C          62.1260   85.7137   10.7960 C.ar    1  UNL1        0.1683
     29 N          62.0774   85.9547    9.3164 N.ar    1  UNL1       -0.2315
     30 C          62.8604   84.8665    8.6435 C.ar    1  UNL1        0.0727
     31 C          63.0734   84.7180    7.1661 C.3     1  UNL1        0.0533
     32 C          63.3930   83.9530    9.7073 C.ar    1  UNL1        0.0565
     33 C          64.2321   82.7305    9.4807 C.3     1  UNL1        0.0517
     34 N          62.9391   84.4766   11.0377 N.ar    1  UNL1       -0.2920
@<TRIPOS>BOND
     1     7     8    1
     2     8     9   ar
     3     9    10   ar
     4    10    11   ar
     5    11    12   ar
     6    12     1    1
     7     1     2    1
     8     2     3    1
     9     3     4    1
    10     4    18    1
    11    18    19    1
    12    19    20    1
    13    20    21   ar
    14    21    22   ar
    15    22    23   ar
    16    23    24   ar
    17    24    25   ar
    18    25    26    1
    19    26    27    1
    20    27    28    1
    21    28    29   ar
    22    29    30   ar
    23    30    31    1
    24    30    32   ar
    25    32    33    1
    26    32    34   ar
    27     4     5    1
    28     5     6    1
    29    12    13   ar
    30    13    14   ar
    31    14    15   ar
    32    15    16   ar
    33    16    17   ar
    34    17     8   ar
    35    16    11   ar
    36     6     1    1
    37    25    20   ar
    38    34    28   ar
    39    34    24    1
@<TRIPOS>MOLECULE
*****
 34 39 0 0 0
SMALL
GASTEIGER

@<TRIPOS>ATOM
      1 N          62.1108   87.7999   11.2838 N.pl3   1  UNL1       -0.3046
      2 C          60.9559   86.9815   10.7873 C.3     1  UNL1        0.1081
      3 C          60.1270   87.4737    9.6381 C.3     1  UNL1        0.0938
      4 N          60.4530   88.7843    8.9853 N.3     1  UNL1       -0.2695
      5 C          61.6080   89.6027    9.4818 C.3     1  UNL1        0.0938
      6 C          62.4368   89.1105   10.6310 C.3     1  UNL1        0.1081
      7 C          63.6861   81.4158   13.2869 C.3     1  UNL1        0.0521
      8 C          63.4995   82.8888   13.0734 C.ar    1  UNL1        0.0593
      9 C          62.6707   83.3810   11.9242 C.ar    1  UNL1        0.0148
     10 C          62.4840   84.8540   11.7107 C.ar    1  UNL1        0.0039
     11 C          63.1263   85.8347   12.6464 C.ar    1  UNL1        0.0310
     12 C          62.9397   87.3077   12.4330 C.ar    1  UNL1        0.0493
     13 C          63.5819   88.2884   13.3688 C.ar    1  UNL1        0.0146
     14 C          64.4108   87.7962   14.5180 C.ar    1  UNL1        0.0028
     15 C          64.5974   86.3233   14.7314 C.ar    1  UNL1        0.0192
     16 C          63.9552   85.3425   13.7957 C.ar    1  UNL1        0.0821
     17 N          64.1418   83.8696   14.0092 N.ar    1  UNL1       -0.2496
     18 C          59.6242   89.2765    7.8361 C.3     1  UNL1        0.0770
     19 C          60.2309   89.3923    6.4692 C.3     1  UNL1        0.0468
     20 C          59.7711   90.4708    5.5335 C.ar    1  UNL1        0.0146
     21 C          58.3479   90.9426    5.5743 C.ar    1  UNL1       -0.0011
     22 C          57.8882   92.0211    4.6386 C.ar    1  UNL1        0.0014
     23 C          58.8517   92.6277    3.6621 C.ar    1  UNL1        0.0206
     24 C          60.2750   92.1558    3.6213 C.ar    1  UNL1        0.0986
     25 C          60.7346   91.0774    4.5570 C.ar    1  UNL1        0.1512
     26 O          62.1579   90.6055    4.5161 O.3     1  UNL1       -0.4662
     27 C          63.1215   91.2121    3.5396 C.3     1  UNL1        0.2688
     28 C          62.6617   92.2906    2.6039 C.ar    1  UNL1        0.1683
     29 N          63.3782   93.0700    1.5413 N.ar    1  UNL1       -0.2315
     30 C          62.3977   94.0236    0.9254 C.ar    1  UNL1        0.0727
     31 C          62.6887   94.9965   -0.1787 C.3     1  UNL1        0.0533
     32 C          61.0753   93.8335    1.6074 C.ar    1  UNL1        0.0565
     33 C          59.8116   94.5829    1.3051 C.3     1  UNL1        0.0517
     34 N          61.2385   92.7624    2.6447 N.ar    1  UNL1       -0.2920
@<TRIPOS>BOND
     1     7     8    1
     2     8     9   ar
     3     9    10   ar
     4    10    11   ar
     5    11    12   ar
     6    12     1    1
     7     1     2    1
     8     2     3    1
     9     3     4    1
    10     4    18    1
    11    18    19    1
    12    19    20    1
    13    20    21   ar
    14    21    22   ar
    15    22    23   ar
    16    23    24   ar
    17    24    25   ar
    18    25    26    1
    19    26    27    1
    20    27    28    1
    21    28    29   ar
    22    29    30   ar
    23    30    31    1
    24    30    32   ar
    25    32    33    1
    26    32    34   ar
    27     4     5    1
    28     5     6    1
    29    12    13   ar
    30    13    14   ar
    31    14    15   ar
    32    15    16   ar
    33    16    17   ar
    34    17     8   ar
    35    16    11   ar
    36     6     1    1
    37    25    20   ar
    38    34    28   ar
    39    34    24    1
@<TRIPOS>MOLECULE
*****
 34 39 0 0 0
SMALL
GASTEIGER

@<TRIPOS>ATOM
      1 N          63.3517   84.8634   14.4875 N.pl3   1  UNL1       -0.3046
      2 C          62.2931   84.8676   15.5501 C.3     1  UNL1        0.1081
      3 C          62.2208   85.9991   16.5323 C.3     1  UNL1        0.0938
      4 N          63.2072   87.1263   16.4518 N.3     1  UNL1       -0.2695
      5 C          64.2659   87.1220   15.3892 C.3     1  UNL1        0.0938
      6 C          64.3381   85.9905   14.4071 C.3     1  UNL1        0.1081
      7 C          62.7484   84.8024    7.6405 C.3     1  UNL1        0.0521
      8 C          62.9173   84.5348    9.1067 C.ar    1  UNL1        0.0593
      9 C          62.8451   85.6662   10.0888 C.ar    1  UNL1        0.0148
     10 C          63.0139   85.3986   11.5551 C.ar    1  UNL1        0.0039
     11 C          63.2551   83.9995   12.0392 C.ar    1  UNL1        0.0310
     12 C          63.4240   83.7319   13.5054 C.ar    1  UNL1        0.0493
     13 C          63.6651   82.3328   13.9896 C.ar    1  UNL1        0.0146
     14 C          63.7373   81.2013   13.0075 C.ar    1  UNL1        0.0028
     15 C          63.5685   81.4689   11.5412 C.ar    1  UNL1        0.0192
     16 C          63.3273   82.8680   11.0571 C.ar    1  UNL1        0.0821
     17 N          63.1584   83.1356    9.5908 N.ar    1  UNL1       -0.2496
     18 C          63.1349   88.2577   17.4339 C.3     1  UNL1        0.0770
     19 C          63.1733   89.6763   16.9480 C.3     1  UNL1        0.0468
     20 C          63.1543   89.9657   15.4762 C.ar    1  UNL1        0.0146
     21 C          62.1355   89.3057   14.5952 C.ar    1  UNL1       -0.0011
     22 C          62.1165   89.5951   13.1235 C.ar    1  UNL1        0.0014
     23 C          63.1164   90.5445   12.5329 C.ar    1  UNL1        0.0206
     24 C          64.1353   91.2045   13.4139 C.ar    1  UNL1        0.0986
     25 C          64.1542   90.9151   14.8856 C.ar    1  UNL1        0.1512
     26 O          65.1731   91.5751   15.7667 O.3     1  UNL1       -0.4662
     27 C          66.1730   92.5246   15.1761 C.3     1  UNL1        0.2688
     28 C          66.1540   92.8139   13.7044 C.ar    1  UNL1        0.1683
     29 N          67.0075   93.6981   12.8443 N.ar    1  UNL1       -0.2315
     30 C          66.5161   93.5845   11.4316 C.ar    1  UNL1        0.0727
     31 C          67.0825   94.2998   10.2409 C.3     1  UNL1        0.0533
     32 C          65.3589   92.6302   11.4187 C.ar    1  UNL1        0.0565
     33 C          64.5650   92.2235   10.2128 C.3     1  UNL1        0.0517
     34 N          65.1352   92.1539   12.8233 N.ar    1  UNL1       -0.2920
@<TRIPOS>BOND
     1     7     8    1
     2     8     9   ar
     3     9    10   ar
     4    10    11   ar
     5    11    12   ar
     6    12     1    1
     7     1     2    1
     8     2     3    1
     9     3     4    1
    10     4    18    1
    11    18    19    1
    12    19    20    1
    13    20    21   ar
    14    21    22   ar
    15    22    23   ar
    16    23    24   ar
    17    24    25   ar
    18    25    26    1
    19    26    27    1
    20    27    28    1
    21    28    29   ar
    22    29    30   ar
    23    30    31    1
    24    30    32   ar
    25    32    33    1
    26    32    34   ar
    27     4     5    1
    28     5     6    1
    29    12    13   ar
    30    13    14   ar
    31    14    15   ar
    32    15    16   ar
    33    16    17   ar
    34    17     8   ar
    35    16    11   ar
    36     6     1    1
    37    25    20   ar
    38    34    28   ar
    39    34    24    1
@<TRIPOS>MOLECULE
*****
 34 39 0 0 0
SMALL
GASTEIGER

@<TRIPOS>ATOM
      1 N          63.4886   88.9049   12.8676 N.pl3   1  UNL1       -0.3046
      2 C          63.3326   90.3307   12.4287 C.3     1  UNL1        0.1081
      3 C          63.9418   91.4359   13.2395 C.3     1  UNL1        0.0938
      4 N          64.7070   91.1153   14.4892 N.3     1  UNL1       -0.2695
      5 C          64.8629   89.6894   14.9281 C.3     1  UNL1        0.0938
      6 C          64.2537   88.5842   14.1173 C.3     1  UNL1        0.1081
      7 C          59.3912   89.1022    7.3519 C.3     1  UNL1        0.0521
      8 C          60.2633   88.7766    8.5282 C.ar    1  UNL1        0.0593
      9 C          60.8725   89.8818    9.3389 C.ar    1  UNL1        0.0148
     10 C          61.7445   89.5561   10.5152 C.ar    1  UNL1        0.0039
     11 C          62.0073   88.1253   10.8806 C.ar    1  UNL1        0.0310
     12 C          62.8794   87.7997   12.0569 C.ar    1  UNL1        0.0493
     13 C          63.1422   86.3688   12.4223 C.ar    1  UNL1        0.0146
     14 C          62.5330   85.2636   11.6116 C.ar    1  UNL1        0.0028
     15 C          61.6610   85.5892   10.4353 C.ar    1  UNL1        0.0192
     16 C          61.3981   87.0200   10.0699 C.ar    1  UNL1        0.0821
     17 N          60.5261   87.3457    8.8936 N.ar    1  UNL1       -0.2496
     18 C          65.3162   92.2205   15.2999 C.3     1  UNL1        0.0770
     19 C          66.6337   92.8108   14.8929 C.3     1  UNL1        0.0468
     20 C          67.1016   92.6928   13.4726 C.ar    1  UNL1        0.0146
     21 C          67.8830   91.4884   13.0380 C.ar    1  UNL1       -0.0011
     22 C          68.3509   91.3704   11.6177 C.ar    1  UNL1        0.0014
     23 C          68.0374   92.4569   10.6321 C.ar    1  UNL1        0.0206
     24 C          67.2561   93.6612   11.0667 C.ar    1  UNL1        0.0986
     25 C          66.7882   93.7792   12.4869 C.ar    1  UNL1        0.1512
     26 O          66.0068   94.9837   12.9216 O.3     1  UNL1       -0.4662
     27 C          65.6934   96.0701   11.9360 C.3     1  UNL1        0.2688
     28 C          66.1613   95.9520   10.5157 C.ar    1  UNL1        0.1683
     29 N          66.0047   96.8560    9.3290 N.ar    1  UNL1       -0.2315
     30 C          66.6892   96.2102    8.1609 C.ar    1  UNL1        0.0727
     31 C          66.7784   96.7694    6.7718 C.3     1  UNL1        0.0533
     32 C          67.2689   94.9072    8.6257 C.ar    1  UNL1        0.0565
     33 C          68.0396   93.9345    7.7832 C.3     1  UNL1        0.0517
     34 N          66.9427   94.7477   10.0811 N.ar    1  UNL1       -0.2920
@<TRIPOS>BOND
     1     7     8    1
     2     8     9   ar
     3     9    10   ar
     4    10    11   ar
     5    11    12   ar
     6    12     1    1
     7     1     2    1
     8     2     3    1
     9     3     4    1
    10     4    18    1
    11    18    19    1
    12    19    20    1
    13    20    21   ar
    14    21    22   ar
    15    22    23   ar
    16    23    24   ar
    17    24    25   ar
    18    25    26    1
    19    26    27    1
    20    27    28    1
    21    28    29   ar
    22    29    30   ar
    23    30    31    1
    24    30    32   ar
    25    32    33    1
    26    32    34   ar
    27     4     5    1
    28     5     6    1
    29    12    13   ar
    30    13    14   ar
    31    14    15   ar
    32    15    16   ar
    33    16    17   ar
    34    17     8   ar
    35    16    11   ar
    36     6     1    1
    37    25    20   ar
    38    34    28   ar
    39    34    24    1
@<TRIPOS>MOLECULE
*****
 34 39 0 0 0
SMALL
GASTEIGER

@<TRIPOS>ATOM
      1 N          63.4411   89.0482   12.6965 N.pl3   1  UNL1       -0.3046
      2 C          63.5561   90.4699   12.2324 C.3     1  UNL1        0.1081
      3 C          64.2328   91.4897   13.0997 C.3     1  UNL1        0.0938
      4 N          64.7944   91.0876   14.4313 N.3     1  UNL1       -0.2695
      5 C          64.6793   89.6658   14.8954 C.3     1  UNL1        0.0938
      6 C          64.0027   88.6462   14.0280 C.3     1  UNL1        0.1081
      7 C          63.3850   82.1827   13.0292 C.3     1  UNL1        0.0521
      8 C          63.2298   83.6441   12.7292 C.ar    1  UNL1        0.0593
      9 C          63.9065   84.6638   13.5966 C.ar    1  UNL1        0.0148
     10 C          63.7513   86.1253   13.2965 C.ar    1  UNL1        0.0039
     11 C          62.9195   86.5671   12.1292 C.ar    1  UNL1        0.0310
     12 C          62.7644   88.0286   11.8291 C.ar    1  UNL1        0.0493
     13 C          61.9325   88.4704   10.6617 C.ar    1  UNL1        0.0146
     14 C          61.2559   87.4507    9.7943 C.ar    1  UNL1        0.0028
     15 C          61.4110   85.9892   10.0943 C.ar    1  UNL1        0.0192
     16 C          62.2428   85.5474   11.2617 C.ar    1  UNL1        0.0821
     17 N          62.3980   84.0859   11.5617 N.ar    1  UNL1       -0.2496
     18 C          65.4711   92.1073   15.2986 C.3     1  UNL1        0.0770
     19 C          66.7919   92.6858   14.8852 C.3     1  UNL1        0.0468
     20 C          67.2271   92.6123   13.4516 C.ar    1  UNL1        0.0146
     21 C          68.0201   91.4346   12.9679 C.ar    1  UNL1       -0.0011
     22 C          68.4553   91.3612   11.5344 C.ar    1  UNL1        0.0014
     23 C          68.0974   92.4655   10.5844 C.ar    1  UNL1        0.0206
     24 C          67.3043   93.6432   11.0681 C.ar    1  UNL1        0.0986
     25 C          66.8692   93.7166   12.5016 C.ar    1  UNL1        0.1512
     26 O          66.0760   94.8944   12.9854 O.3     1  UNL1       -0.4662
     27 C          65.7181   95.9987   12.0354 C.3     1  UNL1        0.2688
     28 C          66.1534   95.9253   10.6018 C.ar    1  UNL1        0.1683
     29 N          65.9507   96.8553    9.4425 N.ar    1  UNL1       -0.2315
     30 C          66.6185   96.2523    8.2423 C.ar    1  UNL1        0.0727
     31 C          66.6631   96.8476    6.8661 C.3     1  UNL1        0.0533
     32 C          67.2339   94.9497    8.6599 C.ar    1  UNL1        0.0565
     33 C          68.0020   94.0135    7.7747 C.3     1  UNL1        0.0517
     34 N          66.9464   94.7476   10.1181 N.ar    1  UNL1       -0.2920
@<TRIPOS>BOND
     1     7     8    1
     2     8     9   ar
     3     9    10   ar
     4    10    11   ar
     5    11    12   ar
     6    12     1    1
     7     1     2    1
     8     2     3    1
     9     3     4    1
    10     4    18    1
    11    18    19    1
    12    19    20    1
    13    20    21   ar
    14    21    22   ar
    15    22    23   ar
    16    23    24   ar
    17    24    25   ar
    18    25    26    1
    19    26    27    1
    20    27    28    1
    21    28    29   ar
    22    29    30   ar
    23    30    31    1
    24    30    32   ar
    25    32    33    1
    26    32    34   ar
    27     4     5    1
    28     5     6    1
    29    12    13   ar
    30    13    14   ar
    31    14    15   ar
    32    15    16   ar
    33    16    17   ar
    34    17     8   ar
    35    16    11   ar
    36     6     1    1
    37    25    20   ar
    38    34    28   ar
    39    34    24    1
@<TRIPOS>MOLECULE
*****
 34 39 0 0 0
SMALL
GASTEIGER

@<TRIPOS>ATOM
      1 N          62.5121   90.1184   11.2375 N.pl3   1  UNL1       -0.3046
      2 C          61.0605   90.4752   11.3622 C.3     1  UNL1        0.1081
      3 C          60.0834   90.0176   10.3201 C.3     1  UNL1        0.0938
      4 N          60.5579   89.2031    9.1533 N.3     1  UNL1       -0.2695
      5 C          62.0096   88.8463    9.0286 C.3     1  UNL1        0.0938
      6 C          62.9866   89.3040   10.0707 C.3     1  UNL1        0.1081
      7 C          66.9960   95.3284   11.2226 C.3     1  UNL1        0.0521
      8 C          66.1193   94.1403   11.4868 C.ar    1  UNL1        0.0593
      9 C          65.1423   93.6827   10.4448 C.ar    1  UNL1        0.0148
     10 C          64.2655   92.4946   10.7090 C.ar    1  UNL1        0.0039
     11 C          64.3658   91.7642   12.0153 C.ar    1  UNL1        0.0310
     12 C          63.4891   90.5761   12.2795 C.ar    1  UNL1        0.0493
     13 C          63.5894   89.8457   13.5859 C.ar    1  UNL1        0.0146
     14 C          64.5664   90.3034   14.6279 C.ar    1  UNL1        0.0028
     15 C          65.4432   91.4914   14.3637 C.ar    1  UNL1        0.0192
     16 C          65.3429   92.2218   13.0574 C.ar    1  UNL1        0.0821
     17 N          66.2196   93.4099   12.7932 N.ar    1  UNL1       -0.2496
     18 C          59.5809   88.7454    8.1113 C.3     1  UNL1        0.0770
     19 C          59.3463   87.2797    7.8954 C.3     1  UNL1        0.0468
     20 C          60.4755   86.3066    8.0637 C.ar    1  UNL1        0.0146
     21 C          61.0360   85.5942    6.8686 C.ar    1  UNL1       -0.0011
     22 C          62.1651   84.6212    7.0369 C.ar    1  UNL1        0.0014
     23 C          62.7337   84.3606    8.4003 C.ar    1  UNL1        0.0206
     24 C          62.1731   85.0730    9.5954 C.ar    1  UNL1        0.0986
     25 C          61.0440   86.0460    9.4271 C.ar    1  UNL1        0.1512
     26 O          60.4834   86.7585   10.6222 O.3     1  UNL1       -0.4662
     27 C          61.0519   86.4979   11.9856 C.3     1  UNL1        0.2688
     28 C          62.1811   85.5248   12.1539 C.ar    1  UNL1        0.1683
     29 N          62.9400   85.0677   13.3642 N.ar    1  UNL1       -0.2315
     30 C          63.9696   84.0727   12.9172 C.ar    1  UNL1        0.0727
     31 C          64.9498   83.3604   13.8016 C.3     1  UNL1        0.0533
     32 C          63.8470   83.9149   11.4306 C.ar    1  UNL1        0.0565
     33 C          64.6830   83.0173   10.5672 C.3     1  UNL1        0.0517
     34 N          62.7416   84.8124   10.9588 N.ar    1  UNL1       -0.2920
@<TRIPOS>BOND
     1     7     8    1
     2     8     9   ar
     3     9    10   ar
     4    10    11   ar
     5    11    12   ar
     6    12     1    1
     7     1     2    1
     8     2     3    1
     9     3     4    1
    10     4    18    1
    11    18    19    1
    12    19    20    1
    13    20    21   ar
    14    21    22   ar
    15    22    23   ar
    16    23    24   ar
    17    24    25   ar
    18    25    26    1
    19    26    27    1
    20    27    28    1
    21    28    29   ar
    22    29    30   ar
    23    30    31    1
    24    30    32   ar
    25    32    33    1
    26    32    34   ar
    27     4     5    1
    28     5     6    1
    29    12    13   ar
    30    13    14   ar
    31    14    15   ar
    32    15    16   ar
    33    16    17   ar
    34    17     8   ar
    35    16    11   ar
    36     6     1    1
    37    25    20   ar
    38    34    28   ar
    39    34    24    1
@<TRIPOS>MOLECULE
*****
 34 39 0 0 0
SMALL
GASTEIGER

@<TRIPOS>ATOM
      1 N          63.6186   91.4249   11.2806 N.pl3   1  UNL1       -0.3046
      2 C          63.0914   90.7143   12.4918 C.3     1  UNL1        0.1081
      3 C          61.9132   89.7942   12.3680 C.3     1  UNL1        0.0938
      4 N          61.2621   89.5848   11.0330 N.3     1  UNL1       -0.2695
      5 C          61.7894   90.2955    9.8217 C.3     1  UNL1        0.0938
      6 C          62.9676   91.2155    9.9456 C.3     1  UNL1        0.1081
      7 C          68.1684   92.2506   16.3666 C.3     1  UNL1        0.0521
      8 C          67.3255   92.2742   15.1260 C.ar    1  UNL1        0.0593
      9 C          66.1473   91.3541   15.0022 C.ar    1  UNL1        0.0148
     10 C          65.3044   91.3777   13.7617 C.ar    1  UNL1        0.0039
     11 C          65.6397   92.3213   12.6449 C.ar    1  UNL1        0.0310
     12 C          64.7968   92.3449   11.4044 C.ar    1  UNL1        0.0493
     13 C          65.1321   93.2886   10.2876 C.ar    1  UNL1        0.0146
     14 C          66.3103   94.2086   10.4115 C.ar    1  UNL1        0.0028
     15 C          67.1532   94.1850   11.6520 C.ar    1  UNL1        0.0192
     16 C          66.8179   93.2414   12.7687 C.ar    1  UNL1        0.0821
     17 N          67.6608   93.2178   14.0093 N.ar    1  UNL1       -0.2496
     18 C          60.0839   88.6648   10.9092 C.3     1  UNL1        0.0770
     19 C          59.9001   87.8446    9.6668 C.3     1  UNL1        0.0468
     20 C          60.8519   86.7271    9.3581 C.ar    1  UNL1        0.0146
     21 C          61.1667   86.3822    7.9327 C.ar    1  UNL1       -0.0011
     22 C          62.1185   85.2647    7.6241 C.ar    1  UNL1        0.0014
     23 C          62.7555   84.4921    8.7409 C.ar    1  UNL1        0.0206
     24 C          62.4407   84.8370   10.1664 C.ar    1  UNL1        0.0986
     25 C          61.4889   85.9545   10.4750 C.ar    1  UNL1        0.1512
     26 O          61.1740   86.2994   11.9005 O.3     1  UNL1       -0.4662
     27 C          61.8110   85.5268   13.0173 C.3     1  UNL1        0.2688
     28 C          62.7629   84.4093   12.7086 C.ar    1  UNL1        0.1683
     29 N          63.5379   83.4781   13.5930 N.ar    1  UNL1       -0.2315
     30 C          64.3318   82.5576   12.7140 C.ar    1  UNL1        0.0727
     31 C          65.2491   81.4663   13.1807 C.3     1  UNL1        0.0533
     32 C          64.0473   82.9200   11.2865 C.ar    1  UNL1        0.0565
     33 C          64.6302   82.2548   10.0750 C.3     1  UNL1        0.0517
     34 N          63.0777   84.0644   11.2832 N.ar    1  UNL1       -0.2920
@<TRIPOS>BOND
     1     7     8    1
     2     8     9   ar
     3     9    10   ar
     4    10    11   ar
     5    11    12   ar
     6    12     1    1
     7     1     2    1
     8     2     3    1
     9     3     4    1
    10     4    18    1
    11    18    19    1
    12    19    20    1
    13    20    21   ar
    14    21    22   ar
    15    22    23   ar
    16    23    24   ar
    17    24    25   ar
    18    25    26    1
    19    26    27    1
    20    27    28    1
    21    28    29   ar
    22    29    30   ar
    23    30    31    1
    24    30    32   ar
    25    32    33    1
    26    32    34   ar
    27     4     5    1
    28     5     6    1
    29    12    13   ar
    30    13    14   ar
    31    14    15   ar
    32    15    16   ar
    33    16    17   ar
    34    17     8   ar
    35    16    11   ar
    36     6     1    1
    37    25    20   ar
    38    34    28   ar
    39    34    24    1
@<TRIPOS>MOLECULE
*****
 34 39 0 0 0
SMALL
GASTEIGER

@<TRIPOS>ATOM
      1 N          61.9778   87.9366   11.0587 N.pl3   1  UNL1       -0.3046
      2 C          62.0299   87.0858    9.8245 C.3     1  UNL1        0.1081
      3 C          61.1885   87.4391    8.6339 C.3     1  UNL1        0.0938
      4 N          60.2951   88.6432    8.6776 N.3     1  UNL1       -0.2695
      5 C          60.2430   89.4940    9.9120 C.3     1  UNL1        0.0938
      6 C          61.0843   89.1407   11.1024 C.3     1  UNL1        0.1081
      7 C          65.6988   91.8922   15.2727 C.3     1  UNL1        0.0521
      8 C          64.9789   90.8150   14.5168 C.ar    1  UNL1        0.0593
      9 C          64.1376   91.1683   13.3263 C.ar    1  UNL1        0.0148
     10 C          63.4176   90.0911   12.5704 C.ar    1  UNL1        0.0039
     11 C          63.5390   88.6606   13.0051 C.ar    1  UNL1        0.0310
     12 C          62.8191   87.5834   12.2492 C.ar    1  UNL1        0.0493
     13 C          62.9406   86.1528   12.6839 C.ar    1  UNL1        0.0146
     14 C          63.7819   85.7996   13.8744 C.ar    1  UNL1        0.0028
     15 C          64.5018   86.8768   14.6302 C.ar    1  UNL1        0.0192
     16 C          64.3804   88.3073   14.1956 C.ar    1  UNL1        0.0821
     17 N          65.1003   89.3845   14.9515 N.ar    1  UNL1       -0.2496
     18 C          59.4537   88.9964    7.4872 C.3     1  UNL1        0.0770
     19 C          60.0997   89.2201    6.1520 C.3     1  UNL1        0.0468
     20 C          59.7273   90.4182    5.3299 C.ar    1  UNL1        0.0146
     21 C          58.3382   90.9789    5.4078 C.ar    1  UNL1       -0.0011
     22 C          57.9657   92.1769    4.5858 C.ar    1  UNL1        0.0014
     23 C          58.9824   92.8144    3.6857 C.ar    1  UNL1        0.0206
     24 C          60.3715   92.2538    3.6078 C.ar    1  UNL1        0.0986
     25 C          60.7439   91.0557    4.4299 C.ar    1  UNL1        0.1512
     26 O          62.1330   90.4950    4.3519 O.3     1  UNL1       -0.4662
     27 C          63.1497   91.1325    3.4519 C.3     1  UNL1        0.2688
     28 C          62.7772   92.3306    2.6298 C.ar    1  UNL1        0.1683
     29 N          63.5602   93.1652    1.6601 N.ar    1  UNL1       -0.2315
     30 C          62.6550   94.2417    1.1388 C.ar    1  UNL1        0.0727
     31 C          63.0270   95.3015    0.1445 C.3     1  UNL1        0.0533
     32 C          61.3126   94.0724    1.7862 C.ar    1  UNL1        0.0565
     33 C          60.1064   94.9330    1.5531 C.3     1  UNL1        0.0517
     34 N          61.3881   92.8912    2.7077 N.ar    1  UNL1       -0.2920
@<TRIPOS>BOND
     1     7     8    1
     2     8     9   ar
     3     9    10   ar
     4    10    11   ar
     5    11    12   ar
     6    12     1    1
     7     1     2    1
     8     2     3    1
     9     3     4    1
    10     4    18    1
    11    18    19    1
    12    19    20    1
    13    20    21   ar
    14    21    22   ar
    15    22    23   ar
    16    23    24   ar
    17    24    25   ar
    18    25    26    1
    19    26    27    1
    20    27    28    1
    21    28    29   ar
    22    29    30   ar
    23    30    31    1
    24    30    32   ar
    25    32    33    1
    26    32    34   ar
    27     4     5    1
    28     5     6    1
    29    12    13   ar
    30    13    14   ar
    31    14    15   ar
    32    15    16   ar
    33    16    17   ar
    34    17     8   ar
    35    16    11   ar
    36     6     1    1
    37    25    20   ar
    38    34    28   ar
    39    34    24    1
