@<TRIPOS>MOLECULE
*****
 16 17 0 0 0
SMALL
GASTEIGER

@<TRIPOS>ATOM
      1 O          63.9808   84.8225   15.3003 O.3     1  UNL1       -0.4689
      2 C          63.5330   83.8092   14.2890 C.ar    1  UNL1        0.1408
      3 C          64.1426   83.7973   12.9185 C.ar    1  UNL1        0.0483
      4 C          63.6948   82.7840   11.9073 C.ar    1  UNL1        0.0615
      5 CL         64.3045   82.7720   10.5367 Cl      1  UNL1       -0.0821
      6 C          62.6374   81.7825   12.2665 C.ar    1  UNL1        0.0230
      7 C          62.0278   81.7944   13.6370 C.ar    1  UNL1        0.0615
      8 CL         60.9704   80.7930   13.9962 Cl      1  UNL1       -0.0821
      9 C          62.4756   82.8077   14.6482 C.ar    1  UNL1        0.0483
     10 C          64.6619   86.0809   14.8502 C.3     1  UNL1        0.2526
     11 O          63.5283   91.2380   14.8799 O.2     1  UNL1       -0.2665
     12 C          63.5844   89.7875   15.2579 C.2     1  UNL1        0.2875
     13 C          64.3208   88.7110   14.5168 C.2     1  UNL1        0.0813
     14 C          64.1055   87.4170   15.2443 C.2     1  UNL1        0.1265
     15 N          63.2361   87.6937   16.4350 N.2     1  UNL1       -0.1564
     16 N          62.9141   89.1587   16.4434 N.am    1  UNL1       -0.0755
@<TRIPOS>BOND
     1    11    12    2
     2    12    13    1
     3    13    14    2
     4    14    10    1
     5    10     1    1
     6     1     2    1
     7     2     3   ar
     8     3     4   ar
     9     4     5    1
    10     4     6   ar
    11     6     7   ar
    12     7     8    1
    13     7     9   ar
    14    14    15    1
    15    15    16    2
    16    16    12    1
    17     9     2   ar
@<TRIPOS>MOLECULE
*****
 16 17 0 0 0
SMALL
GASTEIGER

@<TRIPOS>ATOM
      1 O          63.9565   84.8114   15.3226 O.3     1  UNL1       -0.4689
      2 C          63.5268   83.7957   14.3058 C.ar    1  UNL1        0.1408
      3 C          62.4850   82.7758   14.6584 C.ar    1  UNL1        0.0483
      4 C          62.0554   81.7602   13.6416 C.ar    1  UNL1        0.0615
      5 CL         61.0135   80.7402   13.9941 Cl      1  UNL1       -0.0821
      6 C          62.6676   81.7644   12.2722 C.ar    1  UNL1        0.0230
      7 C          63.7095   82.7843   11.9196 C.ar    1  UNL1        0.0615
      8 CL         64.3217   82.7886   10.5503 Cl      1  UNL1       -0.0821
      9 C          64.1390   83.8000   12.9364 C.ar    1  UNL1        0.0483
     10 C          64.6552   86.0637   14.8829 C.3     1  UNL1        0.2526
     11 O          63.5346   91.2236   14.8516 O.2     1  UNL1       -0.2665
     12 C          63.5827   89.7766   15.2438 C.2     1  UNL1        0.2875
     13 C          64.3246   88.6914   14.5211 C.2     1  UNL1        0.0813
     14 C          64.0978   87.4048   15.2582 C.2     1  UNL1        0.1265
     15 N          63.2158   87.6948   16.4363 N.2     1  UNL1       -0.1564
     16 N          62.8975   89.1605   16.4275 N.am    1  UNL1       -0.0755
@<TRIPOS>BOND
     1    11    12    2
     2    12    13    1
     3    13    14    2
     4    14    10    1
     5    10     1    1
     6     1     2    1
     7     2     3   ar
     8     3     4   ar
     9     4     5    1
    10     4     6   ar
    11     6     7   ar
    12     7     8    1
    13     7     9   ar
    14    14    15    1
    15    15    16    2
    16    16    12    1
    17     9     2   ar
@<TRIPOS>MOLECULE
*****
 16 17 0 0 0
SMALL
GASTEIGER

@<TRIPOS>ATOM
      1 O          64.9557   91.0476   14.8300 O.3     1  UNL1       -0.4689
      2 C          64.7599   91.3728   13.3788 C.ar    1  UNL1        0.1408
      3 C          65.7034   92.3111   12.6865 C.ar    1  UNL1        0.0483
      4 C          65.5075   92.6362   11.2353 C.ar    1  UNL1        0.0615
      5 CL         66.4510   93.5745   10.5429 Cl      1  UNL1       -0.0821
      6 C          64.3681   92.0230   10.4765 C.ar    1  UNL1        0.0230
      7 C          63.4246   91.0847   11.1688 C.ar    1  UNL1        0.0615
      8 CL         62.2853   90.4715   10.4100 Cl      1  UNL1       -0.0821
      9 C          63.6205   90.7596   12.6200 C.ar    1  UNL1        0.0483
     10 C          63.7913   90.5978   15.6616 C.3     1  UNL1        0.2526
     11 O          62.3521   86.0798   17.9850 O.2     1  UNL1       -0.2665
     12 C          62.9247   87.0610   17.0055 C.2     1  UNL1        0.2875
     13 C          62.9059   88.5549   17.1407 C.2     1  UNL1        0.0813
     14 C          63.5862   89.1377   15.9375 C.2     1  UNL1        0.1265
     15 N          64.0253   88.0042   15.0587 N.2     1  UNL1       -0.1564
     16 N          63.6165   86.7207   15.7187 N.am    1  UNL1       -0.0755
@<TRIPOS>BOND
     1    11    12    2
     2    12    13    1
     3    13    14    2
     4    14    10    1
     5    10     1    1
     6     1     2    1
     7     2     3   ar
     8     3     4   ar
     9     4     5    1
    10     4     6   ar
    11     6     7   ar
    12     7     8    1
    13     7     9   ar
    14    14    15    1
    15    15    16    2
    16    16    12    1
    17     9     2   ar
@<TRIPOS>MOLECULE
*****
 16 17 0 0 0
SMALL
GASTEIGER

@<TRIPOS>ATOM
      1 O          62.6091   85.9650   12.1381 O.3     1  UNL1       -0.4689
      2 C          62.0276   86.9667   11.1849 C.ar    1  UNL1        0.1408
      3 C          60.9415   86.5558   10.2355 C.ar    1  UNL1        0.0483
      4 C          60.3600   87.5575    9.2823 C.ar    1  UNL1        0.0615
      5 CL         59.2738   87.1466    8.3329 Cl      1  UNL1       -0.0821
      6 C          60.8647   88.9700    9.2786 C.ar    1  UNL1        0.0230
      7 C          61.9509   89.3809   10.2280 C.ar    1  UNL1        0.0615
      8 CL         62.4556   90.7934   10.2242 Cl      1  UNL1       -0.0821
      9 C          62.5323   88.3792   11.1811 C.ar    1  UNL1        0.0483
     10 C          62.9397   84.5813   11.6627 C.3     1  UNL1        0.2526
     11 O          62.1771   79.6522   13.3956 O.2     1  UNL1       -0.2665
     12 C          62.3701   81.1394   13.3639 C.2     1  UNL1        0.2875
     13 C          62.5701   81.9765   12.1354 C.2     1  UNL1        0.0813
     14 C          62.7206   83.4051   12.5674 C.2     1  UNL1        0.1265
     15 N          62.6135   83.4509   14.0629 N.2     1  UNL1       -0.1564
     16 N          62.3969   82.0506   14.5552 N.am    1  UNL1       -0.0755
@<TRIPOS>BOND
     1    11    12    2
     2    12    13    1
     3    13    14    2
     4    14    10    1
     5    10     1    1
     6     1     2    1
     7     2     3   ar
     8     3     4   ar
     9     4     5    1
    10     4     6   ar
    11     6     7   ar
    12     7     8    1
    13     7     9   ar
    14    14    15    1
    15    15    16    2
    16    16    12    1
    17     9     2   ar
@<TRIPOS>MOLECULE
*****
 16 17 0 0 0
SMALL
GASTEIGER

@<TRIPOS>ATOM
      1 O          62.8241   84.9104   10.7803 O.3     1  UNL1       -0.4689
      2 C          62.7072   84.0281   11.9878 C.ar    1  UNL1        0.1408
      3 C          62.6544   84.6356   13.3583 C.ar    1  UNL1        0.0483
      4 C          62.5376   83.7533   14.5657 C.ar    1  UNL1        0.0615
      5 CL         62.4848   84.3608   15.9362 Cl      1  UNL1       -0.0821
      6 C          62.4736   82.2636   14.4026 C.ar    1  UNL1        0.0230
      7 C          62.5264   81.6561   13.0322 C.ar    1  UNL1        0.0615
      8 CL         62.4623   80.1663   12.8692 Cl      1  UNL1       -0.0821
      9 C          62.6432   82.5384   11.8248 C.ar    1  UNL1        0.0483
     10 C          61.6526   85.7369   10.3392 C.3     1  UNL1        0.2526
     11 O          59.4820   90.3876   11.5801 O.2     1  UNL1       -0.2665
     12 C          60.4557   89.2521   11.4689 C.2     1  UNL1        0.2875
     13 C          60.2179   87.9531   10.7575 C.2     1  UNL1        0.0813
     14 C          61.4535   87.1144   10.8985 C.2     1  UNL1        0.1265
     15 N          62.4550   87.8951   11.6970 N.2     1  UNL1       -0.1564
     16 N          61.8384   89.2162   12.0495 N.am    1  UNL1       -0.0755
@<TRIPOS>BOND
     1    11    12    2
     2    12    13    1
     3    13    14    2
     4    14    10    1
     5    10     1    1
     6     1     2    1
     7     2     3   ar
     8     3     4   ar
     9     4     5    1
    10     4     6   ar
    11     6     7   ar
    12     7     8    1
    13     7     9   ar
    14    14    15    1
    15    15    16    2
    16    16    12    1
    17     9     2   ar
@<TRIPOS>MOLECULE
*****
 16 17 0 0 0
SMALL
GASTEIGER

@<TRIPOS>ATOM
      1 O          62.1714   85.9065   12.2118 O.3     1  UNL1       -0.4689
      2 C          61.4965   86.6315   11.0853 C.ar    1  UNL1        0.1408
      3 C          61.1532   88.0847   11.2275 C.ar    1  UNL1        0.0483
      4 C          60.4783   88.8096   10.1010 C.ar    1  UNL1        0.0615
      5 CL         60.1349   90.2629   10.2432 Cl      1  UNL1       -0.0821
      6 C          60.1467   88.0813    8.8323 C.ar    1  UNL1        0.0230
      7 C          60.4900   86.6281    8.6901 C.ar    1  UNL1        0.0615
      8 CL         60.1585   85.8998    7.4214 Cl      1  UNL1       -0.0821
      9 C          61.1649   85.9032    9.8166 C.ar    1  UNL1        0.0483
     10 C          63.0074   84.6936   11.9291 C.3     1  UNL1        0.2526
     11 O          62.1559   79.6629   13.2885 O.2     1  UNL1       -0.2665
     12 C          62.4298   81.1355   13.3685 C.2     1  UNL1        0.2875
     13 C          62.5420   82.0760   12.2052 C.2     1  UNL1        0.0813
     14 C          62.8212   83.4479   12.7437 C.2     1  UNL1        0.1265
     15 N          62.8817   83.3554   14.2396 N.2     1  UNL1       -0.1564
     16 N          62.6398   81.9263   14.6258 N.am    1  UNL1       -0.0755
@<TRIPOS>BOND
     1    11    12    2
     2    12    13    1
     3    13    14    2
     4    14    10    1
     5    10     1    1
     6     1     2    1
     7     2     3   ar
     8     3     4   ar
     9     4     5    1
    10     4     6   ar
    11     6     7   ar
    12     7     8    1
    13     7     9   ar
    14    14    15    1
    15    15    16    2
    16    16    12    1
    17     9     2   ar
@<TRIPOS>MOLECULE
*****
 16 17 0 0 0
SMALL
GASTEIGER

@<TRIPOS>ATOM
      1 O          62.2545   90.4512   10.9505 O.3     1  UNL1       -0.4689
      2 C          61.6960   89.1810   10.3807 C.ar    1  UNL1        0.1408
      3 C          62.1269   87.8563   10.9370 C.ar    1  UNL1        0.0483
      4 C          61.5683   86.5862   10.3672 C.ar    1  UNL1        0.0615
      5 CL         61.9992   85.2614   10.9235 Cl      1  UNL1       -0.0821
      6 C          60.5790   86.6407    9.2411 C.ar    1  UNL1        0.0230
      7 C          60.1481   87.9654    8.6848 C.ar    1  UNL1        0.0615
      8 CL         59.1587   88.0199    7.5587 Cl      1  UNL1       -0.0821
      9 C          60.7066   89.2355    9.2546 C.ar    1  UNL1        0.0483
     10 C          63.0541   90.4163   12.2191 C.3     1  UNL1        0.2526
     11 O          66.8947   93.9376   11.3640 O.2     1  UNL1       -0.2665
     12 C          65.9111   93.0384   12.0524 C.2     1  UNL1        0.2875
     13 C          64.9257   92.1298   11.3789 C.2     1  UNL1        0.0813
     14 C          64.1458   91.4199   12.4455 C.2     1  UNL1        0.1265
     15 N          64.6491   91.8896   13.7782 N.2     1  UNL1       -0.1564
     16 N          65.7401   92.8899   13.5353 N.am    1  UNL1       -0.0755
@<TRIPOS>BOND
     1    11    12    2
     2    12    13    1
     3    13    14    2
     4    14    10    1
     5    10     1    1
     6     1     2    1
     7     2     3   ar
     8     3     4   ar
     9     4     5    1
    10     4     6   ar
    11     6     7   ar
    12     7     8    1
    13     7     9   ar
    14    14    15    1
    15    15    16    2
    16    16    12    1
    17     9     2   ar
@<TRIPOS>MOLECULE
*****
 16 17 0 0 0
SMALL
GASTEIGER

@<TRIPOS>ATOM
      1 O          61.6672   89.0316   11.9829 O.3     1  UNL1       -0.4689
      2 C          61.4519   88.1071   10.8214 C.ar    1  UNL1        0.1408
      3 C          60.3332   88.3641    9.8557 C.ar    1  UNL1        0.0483
      4 C          60.1179   87.4396    8.6943 C.ar    1  UNL1        0.0615
      5 CL         58.9992   87.6965    7.7285 Cl      1  UNL1       -0.0821
      6 C          61.0213   86.2583    8.4984 C.ar    1  UNL1        0.0230
      7 C          62.1399   86.0014    9.4641 C.ar    1  UNL1        0.0615
      8 CL         63.0433   84.8201    9.2682 Cl      1  UNL1       -0.0821
      9 C          62.3552   86.9258   10.6255 C.ar    1  UNL1        0.0483
     10 C          63.0585   89.4331   12.3740 C.3     1  UNL1        0.2526
     11 O          65.0822   92.3623   16.2734 O.2     1  UNL1       -0.2665
     12 C          64.2462   91.3698   15.5211 C.2     1  UNL1        0.2875
     13 C          64.3313   91.0791   14.0519 C.2     1  UNL1        0.0813
     14 C          63.3160   90.0234   13.7288 C.2     1  UNL1        0.1265
     15 N          62.6034   89.6615   14.9981 N.2     1  UNL1       -0.1564
     16 N          63.1782   90.4936   16.1058 N.am    1  UNL1       -0.0755
@<TRIPOS>BOND
     1    11    12    2
     2    12    13    1
     3    13    14    2
     4    14    10    1
     5    10     1    1
     6     1     2    1
     7     2     3   ar
     8     3     4   ar
     9     4     5    1
    10     4     6   ar
    11     6     7   ar
    12     7     8    1
    13     7     9   ar
    14    14    15    1
    15    15    16    2
    16    16    12    1
    17     9     2   ar
@<TRIPOS>MOLECULE
*****
 16 17 0 0 0
SMALL
GASTEIGER

@<TRIPOS>ATOM
      1 O          62.6114   90.3047   10.5866 O.3     1  UNL1       -0.4689
      2 C          61.9248   89.0420   10.1575 C.ar    1  UNL1        0.1408
      3 C          60.8366   89.0931    9.1264 C.ar    1  UNL1        0.0483
      4 C          60.1501   87.8304    8.6973 C.ar    1  UNL1        0.0615
      5 CL         59.0619   87.8815    7.6662 Cl      1  UNL1       -0.0821
      6 C          60.5518   86.5165    9.2993 C.ar    1  UNL1        0.0230
      7 C          61.6400   86.4654   10.3304 C.ar    1  UNL1        0.0615
      8 CL         62.0417   85.1515   10.9324 Cl      1  UNL1       -0.0821
      9 C          62.3265   87.7281   10.7595 C.ar    1  UNL1        0.0483
     10 C          63.0242   90.4850   12.0173 C.3     1  UNL1        0.2526
     11 O          66.9893   93.9463   11.5942 O.2     1  UNL1       -0.2665
     12 C          65.9497   93.0313   12.1706 C.2     1  UNL1        0.2875
     13 C          64.9781   92.1975   11.3890 C.2     1  UNL1        0.0813
     14 C          64.1272   91.4403   12.3651 C.2     1  UNL1        0.1265
     15 N          64.5729   91.8062   13.7498 N.2     1  UNL1       -0.1564
     16 N          65.6993   92.7895   13.6296 N.am    1  UNL1       -0.0755
@<TRIPOS>BOND
     1    11    12    2
     2    12    13    1
     3    13    14    2
     4    14    10    1
     5    10     1    1
     6     1     2    1
     7     2     3   ar
     8     3     4   ar
     9     4     5    1
    10     4     6   ar
    11     6     7   ar
    12     7     8    1
    13     7     9   ar
    14    14    15    1
    15    15    16    2
    16    16    12    1
    17     9     2   ar
