@<TRIPOS>MOLECULE
*****
 26 28 0 0 0
SMALL
GASTEIGER

@<TRIPOS>ATOM
      1 C          65.0485   92.1249   12.7490 C.ar    1  UNL1        0.1453
      2 C          65.7184   91.8499   14.0626 C.ar    1  UNL1        0.0376
      3 C          65.3537   90.6255   14.8487 C.ar    1  UNL1        0.0076
      4 C          64.3191   89.6762   14.3212 C.ar    1  UNL1        0.0536
      5 C          63.6492   89.9511   13.0076 C.ar    1  UNL1        0.0076
      6 C          64.0139   91.1755   12.2215 C.ar    1  UNL1        0.0376
      7 C          63.9544   88.4518   15.1073 C.2     1  UNL1        0.2461
      8 O          63.1935   88.5852   16.3931 O.2     1  UNL1       -0.2701
      9 N          64.3506   87.0941   14.6076 N.am    1  UNL1       -0.2969
     10 H          64.8500   87.0066   13.7637 H       1  UNL1        0.1501
     11 C          63.9859   85.8698   15.3937 C.3     1  UNL1        0.1181
     12 C          63.8070   84.5551   14.6940 C.ar    1  UNL1        0.0166
     13 C          64.4903   84.3043   13.3824 C.ar    1  UNL1        0.0005
     14 C          64.3113   82.9896   12.6828 C.ar    1  UNL1        0.0204
     15 C          63.4490   81.9256   13.2947 C.ar    1  UNL1        0.0989
     16 N          62.7657   82.1764   14.6063 N.ar    1  UNL1       -0.2426
     17 C          62.9447   83.4911   15.3060 C.ar    1  UNL1        0.0962
     18 O          65.4132   93.3492   11.9629 O.3     1  UNL1       -0.4528
     19 C          66.6454   94.4097    9.9363 C.ar    1  UNL1        0.1029
     20 C          67.6927   94.3291    8.8656 C.ar    1  UNL1        0.0134
     21 C          68.5553   93.1073    8.7506 C.ar    1  UNL1        0.0009
     22 C          68.3705   91.9662    9.7064 C.ar    1  UNL1        0.0032
     23 C          67.3232   92.0468   10.7772 C.ar    1  UNL1        0.0382
     24 C          66.4606   93.2686   10.8921 C.ar    1  UNL1        0.1548
     25 N          64.9202   96.8533   10.1661 N.1     1  UNL1       -0.1907
     26 C          65.7828   95.6315   10.0512 C.1     1  UNL1        0.1035
@<TRIPOS>BOND
     1    25    26    3
     2    26    19    1
     3    19    20   ar
     4    20    21   ar
     5    21    22   ar
     6    22    23   ar
     7    23    24   ar
     8    24    18    1
     9    18     1    1
    10     1     2   ar
    11     2     3   ar
    12     3     4   ar
    13     4     7    1
    14     7     8    2
    15     7     9   am
    16     9    11    1
    17    11    12    1
    18    12    13   ar
    19    13    14   ar
    20    14    15   ar
    21    15    16   ar
    22    16    17   ar
    23     4     5   ar
    24     5     6   ar
    25    24    19   ar
    26     6     1   ar
    27    17    12   ar
    28     9    10    1
@<TRIPOS>MOLECULE
*****
 26 28 0 0 0
SMALL
GASTEIGER

@<TRIPOS>ATOM
      1 C          64.0958   91.0826   12.9218 C.ar    1  UNL1        0.1453
      2 C          64.2523   89.8438   13.7531 C.ar    1  UNL1        0.0376
      3 C          63.6917   88.5396   13.2686 C.ar    1  UNL1        0.0076
      4 C          62.9747   88.4741   11.9527 C.ar    1  UNL1        0.0536
      5 C          62.8182   89.7127   11.1214 C.ar    1  UNL1        0.0076
      6 C          63.3787   91.0170   11.6059 C.ar    1  UNL1        0.0376
      7 C          62.4141   87.1699   11.4682 C.2     1  UNL1        0.2461
      8 O          61.3567   87.1570   10.4044 O.2     1  UNL1       -0.2701
      9 N          62.9110   85.8785   12.0475 N.am    1  UNL1       -0.2969
     10 H          63.6050   85.8869   12.7457 H       1  UNL1        0.1501
     11 C          62.3504   84.5743   11.5629 C.3     1  UNL1        0.1181
     12 C          62.5822   83.3193   12.3511 C.ar    1  UNL1        0.0166
     13 C          62.6926   82.0002   11.6456 C.ar    1  UNL1        0.0005
     14 C          62.9245   80.7452   12.4338 C.ar    1  UNL1        0.0204
     15 C          63.0458   80.8093   13.9275 C.ar    1  UNL1        0.0989
     16 N          62.9354   82.1284   14.6330 N.ar    1  UNL1       -0.2426
     17 C          62.7036   83.3834   13.8449 C.ar    1  UNL1        0.0962
     18 O          64.6564   92.3867   13.4063 O.3     1  UNL1       -0.4528
     19 C          67.2543   92.3914   13.3759 C.ar    1  UNL1        0.1029
     20 C          68.5619   92.4192   14.1102 C.ar    1  UNL1        0.0134
     21 C          68.5794   92.4700   15.6092 C.ar    1  UNL1        0.0009
     22 C          67.2892   92.4930   16.3740 C.ar    1  UNL1        0.0032
     23 C          65.9815   92.4653   15.6396 C.ar    1  UNL1        0.0382
     24 C          65.9641   92.4145   14.1406 C.ar    1  UNL1        0.1548
     25 N          67.2194   92.2898   10.3778 N.1     1  UNL1       -0.1907
     26 C          67.2368   92.3406   11.8768 C.1     1  UNL1        0.1035
@<TRIPOS>BOND
     1    25    26    3
     2    26    19    1
     3    19    20   ar
     4    20    21   ar
     5    21    22   ar
     6    22    23   ar
     7    23    24   ar
     8    24    18    1
     9    18     1    1
    10     1     2   ar
    11     2     3   ar
    12     3     4   ar
    13     4     7    1
    14     7     8    2
    15     7     9   am
    16     9    11    1
    17    11    12    1
    18    12    13   ar
    19    13    14   ar
    20    14    15   ar
    21    15    16   ar
    22    16    17   ar
    23     4     5   ar
    24     5     6   ar
    25    24    19   ar
    26     6     1   ar
    27    17    12   ar
    28     9    10    1
@<TRIPOS>MOLECULE
*****
 26 28 0 0 0
SMALL
GASTEIGER

@<TRIPOS>ATOM
      1 C          64.2790   90.4229   15.1507 C.ar    1  UNL1        0.1453
      2 C          63.4799   90.1873   16.3981 C.ar    1  UNL1        0.0376
      3 C          63.0806   88.7930   16.7809 C.ar    1  UNL1        0.0076
      4 C          63.4804   87.6343   15.9163 C.ar    1  UNL1        0.0536
      5 C          64.2795   87.8698   14.6690 C.ar    1  UNL1        0.0076
      6 C          64.6788   89.2642   14.2861 C.ar    1  UNL1        0.0376
      7 C          63.0811   86.2400   16.2991 C.2     1  UNL1        0.2461
      8 O          62.6336   85.9460   17.7002 O.2     1  UNL1       -0.2701
      9 N          63.1293   85.1397   15.2807 N.am    1  UNL1       -0.2969
     10 H          63.4231   85.3327   14.3610 H       1  UNL1        0.1501
     11 C          62.7301   83.7455   15.6634 C.3     1  UNL1        0.1181
     12 C          62.7476   82.6519   14.6370 C.ar    1  UNL1        0.0166
     13 C          61.5982   81.6926   14.5434 C.ar    1  UNL1        0.0005
     14 C          61.6157   80.5989   13.5169 C.ar    1  UNL1        0.0204
     15 C          62.7826   80.4646   12.5840 C.ar    1  UNL1        0.0989
     16 N          63.9319   81.4239   12.6775 N.ar    1  UNL1       -0.2426
     17 C          63.9144   82.5175   13.7039 C.ar    1  UNL1        0.0962
     18 O          64.6783   91.8172   14.7680 O.3     1  UNL1       -0.4528
     19 C          66.8162   92.2811   13.3664 C.ar    1  UNL1        0.1029
     20 C          67.4705   92.5367   12.0411 C.ar    1  UNL1        0.0134
     21 C          66.6413   92.5841   10.7920 C.ar    1  UNL1        0.0009
     22 C          65.1578   92.3758   10.8682 C.ar    1  UNL1        0.0032
     23 C          64.5035   92.1202   12.1935 C.ar    1  UNL1        0.0382
     24 C          65.3327   92.0728   13.4426 C.ar    1  UNL1        0.1548
     25 N          68.4745   92.1864   15.8646 N.1     1  UNL1       -0.1907
     26 C          67.6453   92.2337   14.6155 C.1     1  UNL1        0.1035
@<TRIPOS>BOND
     1    25    26    3
     2    26    19    1
     3    19    20   ar
     4    20    21   ar
     5    21    22   ar
     6    22    23   ar
     7    23    24   ar
     8    24    18    1
     9    18     1    1
    10     1     2   ar
    11     2     3   ar
    12     3     4   ar
    13     4     7    1
    14     7     8    2
    15     7     9   am
    16     9    11    1
    17    11    12    1
    18    12    13   ar
    19    13    14   ar
    20    14    15   ar
    21    15    16   ar
    22    16    17   ar
    23     4     5   ar
    24     5     6   ar
    25    24    19   ar
    26     6     1   ar
    27    17    12   ar
    28     9    10    1
@<TRIPOS>MOLECULE
*****
 26 28 0 0 0
SMALL
GASTEIGER

@<TRIPOS>ATOM
      1 C          62.5359   87.6494   12.0581 C.ar    1  UNL1        0.1453
      2 C          62.3398   88.8254   11.1478 C.ar    1  UNL1        0.0376
      3 C          63.0391   90.1210   11.4349 C.ar    1  UNL1        0.0076
      4 C          63.9346   90.2406   12.6323 C.ar    1  UNL1        0.0536
      5 C          64.1307   89.0647   13.5426 C.ar    1  UNL1        0.0076
      6 C          63.4314   87.7690   13.2555 C.ar    1  UNL1        0.0376
      7 C          64.6339   91.5361   12.9194 C.2     1  UNL1        0.2461
      8 O          64.7723   92.0164   14.3337 O.2     1  UNL1       -0.2701
      9 N          65.1949   92.3515   11.7922 N.am    1  UNL1       -0.2969
     10 H          65.1041   92.0363   10.8639 H       1  UNL1        0.1501
     11 C          65.8943   93.6470   12.0793 C.3     1  UNL1        0.1181
     12 C          66.4072   94.4890   10.9488 C.ar    1  UNL1        0.0166
     13 C          67.0088   93.8356    9.7400 C.ar    1  UNL1        0.0005
     14 C          67.5217   94.6777    8.6095 C.ar    1  UNL1        0.0204
     15 C          67.4329   96.1730    8.6878 C.ar    1  UNL1        0.0989
     16 N          66.8313   96.8263    9.8966 N.ar    1  UNL1       -0.2426
     17 C          66.3184   95.9843   11.0271 C.ar    1  UNL1        0.0962
     18 O          61.8366   86.3539   11.7710 O.3     1  UNL1       -0.4528
     19 C          63.0093   84.1530   12.4996 C.ar    1  UNL1        0.1029
     20 C          63.8070   82.9305   12.1548 C.ar    1  UNL1        0.0134
     21 C          64.2298   82.6862   10.7365 C.ar    1  UNL1        0.0009
     22 C          63.8549   83.6644    9.6631 C.ar    1  UNL1        0.0032
     23 C          63.0571   84.8870   10.0079 C.ar    1  UNL1        0.0382
     24 C          62.6343   85.1313   11.4262 C.ar    1  UNL1        0.1548
     25 N          62.1636   84.6416   15.3362 N.1     1  UNL1       -0.1907
     26 C          62.5864   84.3973   13.9179 C.1     1  UNL1        0.1035
@<TRIPOS>BOND
     1    25    26    3
     2    26    19    1
     3    19    20   ar
     4    20    21   ar
     5    21    22   ar
     6    22    23   ar
     7    23    24   ar
     8    24    18    1
     9    18     1    1
    10     1     2   ar
    11     2     3   ar
    12     3     4   ar
    13     4     7    1
    14     7     8    2
    15     7     9   am
    16     9    11    1
    17    11    12    1
    18    12    13   ar
    19    13    14   ar
    20    14    15   ar
    21    15    16   ar
    22    16    17   ar
    23     4     5   ar
    24     5     6   ar
    25    24    19   ar
    26     6     1   ar
    27    17    12   ar
    28     9    10    1
@<TRIPOS>MOLECULE
*****
 26 28 0 0 0
SMALL
GASTEIGER

@<TRIPOS>ATOM
      1 C          64.6348   92.2291   12.2402 C.ar    1  UNL1        0.1453
      2 C          64.2977   92.2278   10.7785 C.ar    1  UNL1        0.0376
      3 C          63.3826   91.1783   10.2209 C.ar    1  UNL1        0.0076
      4 C          62.8047   90.1300   11.1248 C.ar    1  UNL1        0.0536
      5 C          63.1417   90.1313   12.5864 C.ar    1  UNL1        0.0076
      6 C          64.0569   91.1809   13.1441 C.ar    1  UNL1        0.0376
      7 C          61.8896   89.0804   10.5671 C.2     1  UNL1        0.2461
      8 O          61.0033   89.4013    9.4002 O.2     1  UNL1       -0.2701
      9 N          61.8608   87.7100   11.1763 N.am    1  UNL1       -0.2969
     10 H          62.4424   87.4994   11.9422 H       1  UNL1        0.1501
     11 C          60.9457   86.6604   10.6186 C.3     1  UNL1        0.1181
     12 C          61.2314   86.0520    9.2777 C.ar    1  UNL1        0.0166
     13 C          62.5922   85.4944    8.9817 C.ar    1  UNL1        0.0005
     14 C          62.8779   84.8860    7.6407 C.ar    1  UNL1        0.0204
     15 C          61.8029   84.8350    6.5958 C.ar    1  UNL1        0.0989
     16 N          60.4422   85.3926    6.8918 N.ar    1  UNL1       -0.2426
     17 C          60.1565   86.0010    8.2328 C.ar    1  UNL1        0.0962
     18 O          65.5499   93.2787   12.7979 O.3     1  UNL1       -0.4528
     19 C          67.8979   92.3470   13.4053 C.ar    1  UNL1        0.1029
     20 C          68.9218   91.9778   14.4375 C.ar    1  UNL1        0.0134
     21 C          68.6215   92.1710   15.8944 C.ar    1  UNL1        0.0009
     22 C          67.2974   92.7334   16.3191 C.ar    1  UNL1        0.0032
     23 C          66.2736   93.1026   15.2870 C.ar    1  UNL1        0.0382
     24 C          66.5738   92.9094   13.8301 C.ar    1  UNL1        0.1548
     25 N          68.4984   91.9607   10.4916 N.1     1  UNL1       -0.1907
     26 C          68.1982   92.1539   11.9484 C.1     1  UNL1        0.1035
@<TRIPOS>BOND
     1    25    26    3
     2    26    19    1
     3    19    20   ar
     4    20    21   ar
     5    21    22   ar
     6    22    23   ar
     7    23    24   ar
     8    24    18    1
     9    18     1    1
    10     1     2   ar
    11     2     3   ar
    12     3     4   ar
    13     4     7    1
    14     7     8    2
    15     7     9   am
    16     9    11    1
    17    11    12    1
    18    12    13   ar
    19    13    14   ar
    20    14    15   ar
    21    15    16   ar
    22    16    17   ar
    23     4     5   ar
    24     5     6   ar
    25    24    19   ar
    26     6     1   ar
    27    17    12   ar
    28     9    10    1
@<TRIPOS>MOLECULE
*****
 26 28 0 0 0
SMALL
GASTEIGER

@<TRIPOS>ATOM
      1 C          62.7721   85.0737   10.2648 C.ar    1  UNL1        0.1453
      2 C          61.7318   85.8479   11.0189 C.ar    1  UNL1        0.0376
      3 C          60.6699   86.6004   10.2732 C.ar    1  UNL1        0.0076
      4 C          60.6481   86.5787    8.7736 C.ar    1  UNL1        0.0536
      5 C          61.6883   85.8046    8.0195 C.ar    1  UNL1        0.0076
      6 C          62.7503   85.0521    8.7651 C.ar    1  UNL1        0.0376
      7 C          59.5861   87.3312    8.0279 C.2     1  UNL1        0.2461
      8 O          58.2317   86.7180    7.8294 O.2     1  UNL1       -0.2701
      9 N          59.8786   88.6969    7.4808 N.am    1  UNL1       -0.2969
     10 H          60.7676   89.0994    7.6111 H       1  UNL1        0.1501
     11 C          58.8166   89.4494    6.7352 C.3     1  UNL1        0.1181
     12 C          59.2030   90.4870    5.7233 C.ar    1  UNL1        0.0166
     13 C          60.6300   90.6033    5.2757 C.ar    1  UNL1        0.0005
     14 C          61.0163   91.6410    4.2637 C.ar    1  UNL1        0.0204
     15 C          59.9758   92.5622    3.6994 C.ar    1  UNL1        0.0989
     16 N          58.5489   92.4459    4.1469 N.ar    1  UNL1       -0.2426
     17 C          58.1625   91.4083    5.1588 C.ar    1  UNL1        0.0962
     18 O          63.8341   84.3213   11.0104 O.3     1  UNL1       -0.4528
     19 C          63.3514   83.4734   13.4184 C.ar    1  UNL1        0.1029
     20 C          62.9688   82.3641   14.3526 C.ar    1  UNL1        0.0134
     21 C          62.6861   80.9933   13.8133 C.ar    1  UNL1        0.0009
     22 C          62.7861   80.7317   12.3397 C.ar    1  UNL1        0.0032
     23 C          63.1687   81.8411   11.4054 C.ar    1  UNL1        0.0382
     24 C          63.4514   83.2119   11.9447 C.ar    1  UNL1        0.1548
     25 N          63.9168   86.2151   14.4970 N.1     1  UNL1       -0.1907
     26 C          63.6341   84.8443   13.9577 C.1     1  UNL1        0.1035
@<TRIPOS>BOND
     1    25    26    3
     2    26    19    1
     3    19    20   ar
     4    20    21   ar
     5    21    22   ar
     6    22    23   ar
     7    23    24   ar
     8    24    18    1
     9    18     1    1
    10     1     2   ar
    11     2     3   ar
    12     3     4   ar
    13     4     7    1
    14     7     8    2
    15     7     9   am
    16     9    11    1
    17    11    12    1
    18    12    13   ar
    19    13    14   ar
    20    14    15   ar
    21    15    16   ar
    22    16    17   ar
    23     4     5   ar
    24     5     6   ar
    25    24    19   ar
    26     6     1   ar
    27    17    12   ar
    28     9    10    1
@<TRIPOS>MOLECULE
*****
 26 28 0 0 0
SMALL
GASTEIGER

@<TRIPOS>ATOM
      1 C          62.6593   87.3808   12.1006 C.ar    1  UNL1        0.1453
      2 C          63.5217   87.5353   13.3182 C.ar    1  UNL1        0.0376
      3 C          64.1532   88.8604   13.6267 C.ar    1  UNL1        0.0076
      4 C          63.9225   90.0310   12.7177 C.ar    1  UNL1        0.0536
      5 C          63.0602   89.8766   11.5001 C.ar    1  UNL1        0.0076
      6 C          62.4285   88.5515   11.1916 C.ar    1  UNL1        0.0376
      7 C          64.5541   91.3561   13.0262 C.2     1  UNL1        0.2461
      8 O          64.5524   91.8786   14.4323 O.2     1  UNL1       -0.2701
      9 N          65.1875   92.1588   11.9286 N.am    1  UNL1       -0.2969
     10 H          65.1886   91.8159   11.0058 H       1  UNL1        0.1501
     11 C          65.8191   93.4838   12.2371 C.3     1  UNL1        0.1181
     12 C          66.3507   94.3383   11.1249 C.ar    1  UNL1        0.0166
     13 C          67.0030   93.6997    9.9346 C.ar    1  UNL1        0.0005
     14 C          67.5347   94.5543    8.8223 C.ar    1  UNL1        0.0204
     15 C          67.4141   96.0474    8.9003 C.ar    1  UNL1        0.0989
     16 N          66.7618   96.6860   10.0906 N.ar    1  UNL1       -0.2426
     17 C          66.2302   95.8315   11.2028 C.ar    1  UNL1        0.0962
     18 O          62.0277   86.0558   11.7921 O.3     1  UNL1       -0.4528
     19 C          63.3973   84.1242   10.7228 C.ar    1  UNL1        0.1029
     20 C          64.1941   82.8617   10.8678 C.ar    1  UNL1        0.0134
     21 C          64.4181   82.2681   12.2270 C.ar    1  UNL1        0.0009
     22 C          63.8454   82.9371   13.4413 C.ar    1  UNL1        0.0032
     23 C          63.0486   84.1996   13.2963 C.ar    1  UNL1        0.0382
     24 C          62.8245   84.7932   11.9371 C.ar    1  UNL1        0.1548
     25 N          62.9491   85.3114    8.0044 N.1     1  UNL1       -0.1907
     26 C          63.1732   84.7178    9.3636 C.1     1  UNL1        0.1035
@<TRIPOS>BOND
     1    25    26    3
     2    26    19    1
     3    19    20   ar
     4    20    21   ar
     5    21    22   ar
     6    22    23   ar
     7    23    24   ar
     8    24    18    1
     9    18     1    1
    10     1     2   ar
    11     2     3   ar
    12     3     4   ar
    13     4     7    1
    14     7     8    2
    15     7     9   am
    16     9    11    1
    17    11    12    1
    18    12    13   ar
    19    13    14   ar
    20    14    15   ar
    21    15    16   ar
    22    16    17   ar
    23     4     5   ar
    24     5     6   ar
    25    24    19   ar
    26     6     1   ar
    27    17    12   ar
    28     9    10    1
@<TRIPOS>MOLECULE
*****
 26 28 0 0 0
SMALL
GASTEIGER

@<TRIPOS>ATOM
      1 C          61.9627   87.8450   11.0569 C.ar    1  UNL1        0.1453
      2 C          61.9122   89.1220   10.2716 C.ar    1  UNL1        0.0376
      3 C          62.6739   90.3243   10.7451 C.ar    1  UNL1        0.0076
      4 C          63.4861   90.2497   12.0039 C.ar    1  UNL1        0.0536
      5 C          63.5367   88.9727   12.7892 C.ar    1  UNL1        0.0076
      6 C          62.7750   87.7703   12.3157 C.ar    1  UNL1        0.0376
      7 C          64.2478   91.4520   12.4774 C.2     1  UNL1        0.2461
      8 O          64.2246   91.8308   13.9286 O.2     1  UNL1       -0.2701
      9 N          65.0327   92.2755   11.4998 N.am    1  UNL1       -0.2969
     10 H          65.0479   92.0269   10.5473 H       1  UNL1        0.1501
     11 C          65.7944   93.4778   11.9733 C.3     1  UNL1        0.1181
     12 C          66.3933   94.4262   10.9774 C.ar    1  UNL1        0.0166
     13 C          67.1085   93.8941    9.7711 C.ar    1  UNL1        0.0005
     14 C          67.7075   94.8426    8.7752 C.ar    1  UNL1        0.0204
     15 C          67.5912   96.3231    8.9857 C.ar    1  UNL1        0.0989
     16 N          66.8760   96.8553   10.1921 N.ar    1  UNL1       -0.2426
     17 C          66.2770   95.9069   11.1879 C.ar    1  UNL1        0.0962
     18 O          61.2011   86.6427   10.5833 O.3     1  UNL1       -0.4528
     19 C          60.8306   86.0369    8.0842 C.ar    1  UNL1        0.1029
     20 C          61.2663   85.3135    6.8445 C.ar    1  UNL1        0.0134
     21 C          62.5081   84.4723    6.8643 C.ar    1  UNL1        0.0009
     22 C          63.3142   84.3546    8.1238 C.ar    1  UNL1        0.0032
     23 C          62.8785   85.0781    9.3634 C.ar    1  UNL1        0.0382
     24 C          61.6367   85.9192    9.3436 C.ar    1  UNL1        0.1548
     25 N          58.3470   87.7193    8.0445 N.1     1  UNL1       -0.1907
     26 C          59.5888   86.8781    8.0643 C.1     1  UNL1        0.1035
@<TRIPOS>BOND
     1    25    26    3
     2    26    19    1
     3    19    20   ar
     4    20    21   ar
     5    21    22   ar
     6    22    23   ar
     7    23    24   ar
     8    24    18    1
     9    18     1    1
    10     1     2   ar
    11     2     3   ar
    12     3     4   ar
    13     4     7    1
    14     7     8    2
    15     7     9   am
    16     9    11    1
    17    11    12    1
    18    12    13   ar
    19    13    14   ar
    20    14    15   ar
    21    15    16   ar
    22    16    17   ar
    23     4     5   ar
    24     5     6   ar
    25    24    19   ar
    26     6     1   ar
    27    17    12   ar
    28     9    10    1
@<TRIPOS>MOLECULE
*****
 26 28 0 0 0
SMALL
GASTEIGER

@<TRIPOS>ATOM
      1 C          63.4952   84.9889   14.5132 C.ar    1  UNL1        0.1453
      2 C          63.6354   85.5716   15.8883 C.ar    1  UNL1        0.0376
      3 C          63.8376   87.0479   16.0602 C.ar    1  UNL1        0.0076
      4 C          63.8995   87.9415   14.8570 C.ar    1  UNL1        0.0536
      5 C          63.7593   87.3589   13.4820 C.ar    1  UNL1        0.0076
      6 C          63.5571   85.8825   13.3100 C.ar    1  UNL1        0.0376
      7 C          64.1017   89.4178   15.0289 C.2     1  UNL1        0.2461
      8 O          63.1667   90.2069   15.8969 O.2     1  UNL1       -0.2701
      9 N          65.2388   90.1052   14.3328 N.am    1  UNL1       -0.2969
     10 H          65.8525   89.5874   13.7631 H       1  UNL1        0.1501
     11 C          65.4410   91.5815   14.5047 C.3     1  UNL1        0.1181
     12 C          65.6245   92.4584   13.3017 C.ar    1  UNL1        0.0166
     13 C          65.0335   92.0561   11.9831 C.ar    1  UNL1        0.0005
     14 C          65.2171   92.9331   10.7800 C.ar    1  UNL1        0.0204
     15 C          65.9916   94.2124   10.8956 C.ar    1  UNL1        0.0989
     16 N          66.5826   94.6147   12.2143 N.ar    1  UNL1       -0.2426
     17 C          66.3991   93.7378   13.4173 C.ar    1  UNL1        0.0962
     18 O          63.2930   83.5125   14.3413 O.3     1  UNL1       -0.4528
     19 C          62.5893   81.7342   12.5827 C.ar    1  UNL1        0.1029
     20 C          62.7579   81.1066   11.2308 C.ar    1  UNL1        0.0134
     21 C          63.7986   81.6295   10.2856 C.ar    1  UNL1        0.0009
     22 C          64.6708   82.7801   10.6922 C.ar    1  UNL1        0.0032
     23 C          64.5022   83.4078   12.0441 C.ar    1  UNL1        0.0382
     24 C          63.4615   82.8848   12.9893 C.ar    1  UNL1        0.1548
     25 N          60.5079   80.6883   14.4732 N.1     1  UNL1       -0.1907
     26 C          61.5486   81.2113   13.5279 C.1     1  UNL1        0.1035
@<TRIPOS>BOND
     1    25    26    3
     2    26    19    1
     3    19    20   ar
     4    20    21   ar
     5    21    22   ar
     6    22    23   ar
     7    23    24   ar
     8    24    18    1
     9    18     1    1
    10     1     2   ar
    11     2     3   ar
    12     3     4   ar
    13     4     7    1
    14     7     8    2
    15     7     9   am
    16     9    11    1
    17    11    12    1
    18    12    13   ar
    19    13    14   ar
    20    14    15   ar
    21    15    16   ar
    22    16    17   ar
    23     4     5   ar
    24     5     6   ar
    25    24    19   ar
    26     6     1   ar
    27    17    12   ar
    28     9    10    1
