@<TRIPOS>MOLECULE
*****
 30 33 0 0 0
SMALL
GASTEIGER

@<TRIPOS>ATOM
      1 C          56.0778   95.7132   -1.4853 C.2     1  UNL1        0.2538
      2 O          55.4030   96.8544   -0.7837 O.2     1  UNL1       -0.2695
      3 N          55.3908   95.0225   -2.6259 N.am    1  UNL1       -0.2400
      4 C          56.0655   93.8812   -3.3275 C.ar    1  UNL1        0.1482
      5 N          55.7307   92.4677   -2.9537 N.ar    1  UNL1       -0.2279
      6 C          56.4054   91.3264   -3.6553 C.ar    1  UNL1        0.1004
      7 C          57.4149   91.5987   -4.7308 C.ar    1  UNL1        0.0216
      8 C          57.7498   93.0123   -5.1047 C.ar    1  UNL1        0.0158
      9 C          57.0750   94.1536   -4.4031 C.ar    1  UNL1        0.0896
     10 CL         57.4098   95.5671   -4.7769 Cl      1  UNL1       -0.0793
     11 C          54.0290   95.4730   -3.0649 C.3     1  UNL1        0.0972
     12 C          53.8325   96.0349   -4.4416 C.3     1  UNL1        0.0231
     13 C          52.4708   96.4854   -4.8805 C.3     1  UNL1        0.0188
     14 C          51.3055   96.3740   -3.9427 C.3     1  UNL1        0.0687
     15 N          51.5019   95.8120   -2.5659 N.3     1  UNL1       -0.2961
     16 C          52.8637   95.3616   -2.1270 C.3     1  UNL1        0.0890
     17 H          50.8847   95.0038   -2.4869 H       1  UNL1        0.1233
     18 C          60.1630   94.3615   -0.1686 C.ar    1  UNL1        0.0192
     19 C          59.9789   95.7291   -0.7565 C.ar    1  UNL1        0.0017
     20 C          58.6171   96.1797   -1.1955 C.ar    1  UNL1        0.0046
     21 C          57.4395   95.2626   -1.0464 C.ar    1  UNL1        0.0539
     22 C          57.6236   93.8950   -0.4585 C.ar    1  UNL1        0.0046
     23 C          58.9854   93.4444   -0.0196 C.ar    1  UNL1        0.0017
     24 C          63.1621   91.4723    2.9391 C.3     1  UNL1        0.0538
     25 C          63.0243   92.4663    1.8242 C.ar    1  UNL1        0.0784
     26 C          64.2481   93.0097    1.1483 C.ar    1  UNL1        0.1135
     27 N          64.1103   94.0037    0.0334 N.ar    1  UNL1       -0.2395
     28 C          62.7486   94.4543   -0.4056 C.ar    1  UNL1        0.1179
     29 C          61.5248   93.9109    0.2704 C.ar    1  UNL1        0.1000
     30 N          61.6626   92.9169    1.3852 N.ar    1  UNL1       -0.2465
@<TRIPOS>BOND
     1    24    25    1
     2    25    26   ar
     3    26    27   ar
     4    27    28   ar
     5    28    29   ar
     6    29    18    1
     7    18    19   ar
     8    19    20   ar
     9    20    21   ar
    10    21     1    1
    11     1     2    2
    12     1     3   am
    13     3     4    1
    14     4     5   ar
    15     5     6   ar
    16     6     7   ar
    17     7     8   ar
    18     8     9   ar
    19     9    10    1
    20    11     3    1
    21    11    12    1
    22    12    13    1
    23    13    14    1
    24    14    15    1
    25    15    16    1
    26    21    22   ar
    27    22    23   ar
    28    29    30   ar
    29    30    25   ar
    30    23    18   ar
    31     9     4   ar
    32    16    11    1
    33    15    17    1
@<TRIPOS>MOLECULE
*****
 30 33 0 0 0
SMALL
GASTEIGER

@<TRIPOS>ATOM
      1 C          56.1421   95.9001   -1.5105 C.2     1  UNL1        0.2538
      2 O          55.3742   96.8407   -0.6298 O.2     1  UNL1       -0.2695
      3 N          55.4616   95.2331   -2.6689 N.am    1  UNL1       -0.2400
      4 C          56.2294   94.2926   -3.5496 C.ar    1  UNL1        0.1482
      5 N          56.9521   94.8156   -4.7555 N.ar    1  UNL1       -0.2279
      6 C          57.7200   93.8750   -5.6362 C.ar    1  UNL1        0.1004
      7 C          57.7652   92.4114   -5.3110 C.ar    1  UNL1        0.0216
      8 C          57.0426   91.8883   -4.1051 C.ar    1  UNL1        0.0158
      9 C          56.2747   92.8289   -3.2244 C.ar    1  UNL1        0.0896
     10 CL         55.5521   92.3059   -2.0185 Cl      1  UNL1       -0.0793
     11 C          54.0131   95.5067   -2.9466 C.3     1  UNL1        0.0972
     12 C          53.6069   96.1632   -4.2327 C.3     1  UNL1        0.0231
     13 C          52.1585   96.4368   -4.5103 C.3     1  UNL1        0.0188
     14 C          51.1162   96.0538   -3.5019 C.3     1  UNL1        0.0687
     15 N          51.5223   95.3972   -2.2159 N.3     1  UNL1       -0.2961
     16 C          52.9707   95.1237   -1.9382 C.3     1  UNL1        0.0890
     17 H          51.0406   94.4989   -2.1790 H       1  UNL1        0.1233
     18 C          60.4875   95.0793   -0.6774 C.ar    1  UNL1        0.0192
     19 C          60.0848   96.3366   -1.3895 C.ar    1  UNL1        0.0017
     20 C          58.6363   96.6102   -1.6672 C.ar    1  UNL1        0.0046
     21 C          57.5905   95.6266   -1.2328 C.ar    1  UNL1        0.0539
     22 C          57.9933   94.3692   -0.5207 C.ar    1  UNL1        0.0046
     23 C          59.4417   94.0957   -0.2430 C.ar    1  UNL1        0.0017
     24 C          65.4932   96.3673   -1.2108 C.3     1  UNL1        0.0538
     25 C          64.4388   95.4497   -0.6664 C.ar    1  UNL1        0.0784
     26 C          64.8328   94.2585    0.1556 C.ar    1  UNL1        0.1135
     27 N          63.7785   93.3409    0.7000 N.ar    1  UNL1       -0.2395
     28 C          62.3300   93.6145    0.4223 C.ar    1  UNL1        0.1179
     29 C          61.9360   94.8057   -0.3997 C.ar    1  UNL1        0.1000
     30 N          62.9903   95.7233   -0.9441 N.ar    1  UNL1       -0.2465
@<TRIPOS>BOND
     1    24    25    1
     2    25    26   ar
     3    26    27   ar
     4    27    28   ar
     5    28    29   ar
     6    29    18    1
     7    18    19   ar
     8    19    20   ar
     9    20    21   ar
    10    21     1    1
    11     1     2    2
    12     1     3   am
    13     3     4    1
    14     4     5   ar
    15     5     6   ar
    16     6     7   ar
    17     7     8   ar
    18     8     9   ar
    19     9    10    1
    20    11     3    1
    21    11    12    1
    22    12    13    1
    23    13    14    1
    24    14    15    1
    25    15    16    1
    26    21    22   ar
    27    22    23   ar
    28    29    30   ar
    29    30    25   ar
    30    23    18   ar
    31     9     4   ar
    32    16    11    1
    33    15    17    1
@<TRIPOS>MOLECULE
*****
 30 33 0 0 0
SMALL
GASTEIGER

@<TRIPOS>ATOM
      1 C          63.3133   84.5641   14.1235 C.2     1  UNL1        0.2538
      2 O          63.5145   83.8604   15.4328 O.2     1  UNL1       -0.2695
      3 N          62.7410   83.8211   12.9529 N.am    1  UNL1       -0.2400
      4 C          62.5398   84.5249   11.6436 C.ar    1  UNL1        0.1482
      5 N          61.3825   85.4625   11.4661 N.ar    1  UNL1       -0.2279
      6 C          61.1813   86.1662   10.1568 C.ar    1  UNL1        0.1004
      7 C          62.1375   85.9323    9.0250 C.ar    1  UNL1        0.0216
      8 C          63.2948   84.9946    9.2024 C.ar    1  UNL1        0.0158
      9 C          63.4960   84.2909   10.5117 C.ar    1  UNL1        0.0896
     10 CL         64.6533   83.3533   10.6892 Cl      1  UNL1       -0.0793
     11 C          62.3697   82.3744   13.0916 C.3     1  UNL1        0.0972
     12 C          61.3382   81.9579   14.0977 C.3     1  UNL1        0.0231
     13 C          60.9670   80.5112   14.2364 C.3     1  UNL1        0.0188
     14 C          61.6274   79.4810   13.3689 C.3     1  UNL1        0.0687
     15 N          62.6590   79.8975   12.3628 N.3     1  UNL1       -0.2961
     16 C          63.0302   81.3442   12.2241 C.3     1  UNL1        0.0890
     17 H          62.3208   79.5915   11.4504 H       1  UNL1        0.1233
     18 C          64.4269   88.9042   13.7073 C.ar    1  UNL1        0.0192
     19 C          64.9157   88.1142   14.8849 C.ar    1  UNL1        0.0017
     20 C          64.5446   86.6674   15.0236 C.ar    1  UNL1        0.0046
     21 C          63.6845   86.0108   13.9848 C.ar    1  UNL1        0.0539
     22 C          63.1956   86.8010   12.8072 C.ar    1  UNL1        0.0046
     23 C          63.5668   88.2477   12.6685 C.ar    1  UNL1        0.0017
     24 C          66.9463   93.0927   15.4706 C.3     1  UNL1        0.0538
     25 C          66.0577   92.4452   14.4502 C.ar    1  UNL1        0.0784
     26 C          65.5404   93.2444   13.2911 C.ar    1  UNL1        0.1135
     27 N          64.6519   92.5969   12.2707 N.ar    1  UNL1       -0.2395
     28 C          64.2807   91.1502   12.4094 C.ar    1  UNL1        0.1179
     29 C          64.7980   90.3510   13.5685 C.ar    1  UNL1        0.1000
     30 N          65.6866   90.9985   14.5889 N.ar    1  UNL1       -0.2465
@<TRIPOS>BOND
     1    24    25    1
     2    25    26   ar
     3    26    27   ar
     4    27    28   ar
     5    28    29   ar
     6    29    18    1
     7    18    19   ar
     8    19    20   ar
     9    20    21   ar
    10    21     1    1
    11     1     2    2
    12     1     3   am
    13     3     4    1
    14     4     5   ar
    15     5     6   ar
    16     6     7   ar
    17     7     8   ar
    18     8     9   ar
    19     9    10    1
    20    11     3    1
    21    11    12    1
    22    12    13    1
    23    13    14    1
    24    14    15    1
    25    15    16    1
    26    21    22   ar
    27    22    23   ar
    28    29    30   ar
    29    30    25   ar
    30    23    18   ar
    31     9     4   ar
    32    16    11    1
    33    15    17    1
@<TRIPOS>MOLECULE
*****
 30 33 0 0 0
SMALL
GASTEIGER

@<TRIPOS>ATOM
      1 C          60.1325   95.2301    0.7811 C.2     1  UNL1        0.2538
      2 O          60.0637   95.1111    2.2748 O.2     1  UNL1       -0.2695
      3 N          61.4627   95.2155    0.0881 N.am    1  UNL1       -0.2400
      4 C          61.5315   95.3345   -1.4056 C.ar    1  UNL1        0.1482
      5 N          61.6962   96.6819   -2.0438 N.ar    1  UNL1       -0.2279
      6 C          61.7650   96.8009   -3.5375 C.ar    1  UNL1        0.1004
      7 C          61.6691   95.5726   -4.3930 C.ar    1  UNL1        0.0216
      8 C          61.5044   94.2251   -3.7548 C.ar    1  UNL1        0.0158
      9 C          61.4356   94.1061   -2.2611 C.ar    1  UNL1        0.0896
     10 CL         61.2709   92.7587   -1.6229 Cl      1  UNL1       -0.0793
     11 C          62.7241   95.0820    0.8887 C.3     1  UNL1        0.0972
     12 C          63.4271   96.3082    1.3909 C.3     1  UNL1        0.0231
     13 C          64.6884   96.1746    2.1915 C.3     1  UNL1        0.0188
     14 C          65.2469   94.8148    2.4899 C.3     1  UNL1        0.0687
     15 N          64.5440   93.5886    1.9878 N.3     1  UNL1       -0.2961
     16 C          63.2826   93.7222    1.1872 C.3     1  UNL1        0.0890
     17 H          64.3149   93.0245    2.8062 H       1  UNL1        0.1233
     18 C          56.3483   95.6306   -1.6209 C.ar    1  UNL1        0.0192
     19 C          57.1162   96.8556   -1.2213 C.ar    1  UNL1        0.0017
     20 C          58.3776   96.7221   -0.4206 C.ar    1  UNL1        0.0046
     21 C          58.8711   95.3636   -0.0195 C.ar    1  UNL1        0.0539
     22 C          58.1032   94.1386   -0.4192 C.ar    1  UNL1        0.0046
     23 C          56.8418   94.2721   -1.2198 C.ar    1  UNL1        0.0017
     24 C          53.9618   96.1092   -6.2117 C.3     1  UNL1        0.0538
     25 C          53.8936   96.0034   -4.7170 C.ar    1  UNL1        0.0784
     26 C          52.5642   96.0311   -4.0229 C.ar    1  UNL1        0.1135
     27 N          52.4961   95.9253   -2.5282 N.ar    1  UNL1       -0.2395
     28 C          53.7574   95.7918   -1.7275 C.ar    1  UNL1        0.1179
     29 C          55.0869   95.7641   -2.4216 C.ar    1  UNL1        0.1000
     30 N          55.1550   95.8699   -3.9163 N.ar    1  UNL1       -0.2465
@<TRIPOS>BOND
     1    24    25    1
     2    25    26   ar
     3    26    27   ar
     4    27    28   ar
     5    28    29   ar
     6    29    18    1
     7    18    19   ar
     8    19    20   ar
     9    20    21   ar
    10    21     1    1
    11     1     2    2
    12     1     3   am
    13     3     4    1
    14     4     5   ar
    15     5     6   ar
    16     6     7   ar
    17     7     8   ar
    18     8     9   ar
    19     9    10    1
    20    11     3    1
    21    11    12    1
    22    12    13    1
    23    13    14    1
    24    14    15    1
    25    15    16    1
    26    21    22   ar
    27    22    23   ar
    28    29    30   ar
    29    30    25   ar
    30    23    18   ar
    31     9     4   ar
    32    16    11    1
    33    15    17    1
@<TRIPOS>MOLECULE
*****
 30 33 0 0 0
SMALL
GASTEIGER

@<TRIPOS>ATOM
      1 C          63.5434   83.4551   13.6780 C.2     1  UNL1        0.2538
      2 O          63.9096   82.3634   14.6393 O.2     1  UNL1       -0.2695
      3 N          63.0328   83.1102   12.3104 N.am    1  UNL1       -0.2400
      4 C          62.6667   84.2019   11.3492 C.ar    1  UNL1        0.1482
      5 N          61.5355   85.1338   11.6681 N.ar    1  UNL1       -0.2279
      6 C          61.1693   86.2256   10.7069 C.ar    1  UNL1        0.1004
      7 C          61.9343   86.3853    9.4266 C.ar    1  UNL1        0.0216
      8 C          63.0656   85.4534    9.1075 C.ar    1  UNL1        0.0158
      9 C          63.4318   84.3616   10.0688 C.ar    1  UNL1        0.0896
     10 CL         64.5630   83.4297    9.7498 Cl      1  UNL1       -0.0793
     11 C          62.8884   81.6734   11.9041 C.3     1  UNL1        0.0972
     12 C          63.0928   81.2747   10.4726 C.3     1  UNL1        0.0231
     13 C          62.9483   79.8381   10.0663 C.3     1  UNL1        0.0188
     14 C          62.5995   78.8001   11.0915 C.3     1  UNL1        0.0687
     15 N          62.3951   79.1989   12.5230 N.3     1  UNL1       -0.2961
     16 C          62.5396   80.6355   12.9293 C.3     1  UNL1        0.0890
     17 H          63.0680   78.6675   13.0756 H       1  UNL1        0.1233
     18 C          63.9766   87.7651   14.8969 C.ar    1  UNL1        0.0192
     19 C          63.8370   86.7001   15.9438 C.ar    1  UNL1        0.0017
     20 C          63.6926   85.2633   15.5375 C.ar    1  UNL1        0.0046
     21 C          63.6878   84.8917   14.0843 C.ar    1  UNL1        0.0539
     22 C          63.8274   85.9569   13.0373 C.ar    1  UNL1        0.0046
     23 C          63.9718   87.3935   13.4436 C.ar    1  UNL1        0.0017
     24 C          66.2513   92.4002   14.3118 C.3     1  UNL1        0.0538
     25 C          65.2584   91.5194   15.0106 C.ar    1  UNL1        0.0784
     26 C          64.4099   92.0752   16.1155 C.ar    1  UNL1        0.1135
     27 N          63.4170   91.1944   16.8143 N.ar    1  UNL1       -0.2395
     28 C          63.2726   89.7578   16.4081 C.ar    1  UNL1        0.1179
     29 C          64.1210   89.2019   15.3031 C.ar    1  UNL1        0.1000
     30 N          65.1139   90.0827   14.6043 N.ar    1  UNL1       -0.2465
@<TRIPOS>BOND
     1    24    25    1
     2    25    26   ar
     3    26    27   ar
     4    27    28   ar
     5    28    29   ar
     6    29    18    1
     7    18    19   ar
     8    19    20   ar
     9    20    21   ar
    10    21     1    1
    11     1     2    2
    12     1     3   am
    13     3     4    1
    14     4     5   ar
    15     5     6   ar
    16     6     7   ar
    17     7     8   ar
    18     8     9   ar
    19     9    10    1
    20    11     3    1
    21    11    12    1
    22    12    13    1
    23    13    14    1
    24    14    15    1
    25    15    16    1
    26    21    22   ar
    27    22    23   ar
    28    29    30   ar
    29    30    25   ar
    30    23    18   ar
    31     9     4   ar
    32    16    11    1
    33    15    17    1
@<TRIPOS>MOLECULE
*****
 30 33 0 0 0
SMALL
GASTEIGER

@<TRIPOS>ATOM
      1 C          60.8022   94.3199   -0.6155 C.2     1  UNL1        0.2538
      2 O          60.2274   94.5207    0.7553 O.2     1  UNL1       -0.2695
      3 N          62.2838   94.4149   -0.8289 N.am    1  UNL1       -0.2400
      4 C          62.8586   94.2141   -2.1997 C.ar    1  UNL1        0.1482
      5 N          63.1378   92.8279   -2.7003 N.ar    1  UNL1       -0.2279
      6 C          63.7126   92.6271   -4.0712 C.ar    1  UNL1        0.1004
      7 C          64.0082   93.8125   -4.9415 C.ar    1  UNL1        0.0216
      8 C          63.7290   95.1987   -4.4409 C.ar    1  UNL1        0.0158
      9 C          63.1542   95.3995   -3.0701 C.ar    1  UNL1        0.0896
     10 CL         62.8751   96.7857   -2.5695 Cl      1  UNL1       -0.0793
     11 C          63.1908   94.7107    0.3287 C.3     1  UNL1        0.0972
     12 C          63.4428   96.1309    0.7403 C.3     1  UNL1        0.0231
     13 C          64.3498   96.4266    1.8978 C.3     1  UNL1        0.0188
     14 C          65.0047   95.3021    2.6438 C.3     1  UNL1        0.0687
     15 N          64.7527   93.8819    2.2323 N.3     1  UNL1       -0.2961
     16 C          63.8458   93.5862    1.0748 C.3     1  UNL1        0.0890
     17 H          64.3592   93.4056    3.0439 H       1  UNL1        0.1233
     18 C          58.0814   93.4325   -4.0883 C.ar    1  UNL1        0.0192
     19 C          58.7248   94.7819   -3.9654 C.ar    1  UNL1        0.0017
     20 C          59.6318   95.0777   -2.8078 C.ar    1  UNL1        0.0046
     21 C          59.8953   94.0241   -1.7731 C.ar    1  UNL1        0.0539
     22 C          59.2518   92.6747   -1.8961 C.ar    1  UNL1        0.0046
     23 C          58.3449   92.3789   -3.0536 C.ar    1  UNL1        0.0017
     24 C          54.6045   90.3439   -6.4061 C.3     1  UNL1        0.0538
     25 C          55.4360   91.5924   -6.4047 C.ar    1  UNL1        0.0784
     26 C          55.3606   92.5449   -7.5609 C.ar    1  UNL1        0.1135
     27 N          56.1921   93.7934   -7.5596 N.ar    1  UNL1       -0.2395
     28 C          57.0990   94.0892   -6.4021 C.ar    1  UNL1        0.1179
     29 C          57.1745   93.1367   -5.2459 C.ar    1  UNL1        0.1000
     30 N          56.3430   91.8882   -5.2472 N.ar    1  UNL1       -0.2465
@<TRIPOS>BOND
     1    24    25    1
     2    25    26   ar
     3    26    27   ar
     4    27    28   ar
     5    28    29   ar
     6    29    18    1
     7    18    19   ar
     8    19    20   ar
     9    20    21   ar
    10    21     1    1
    11     1     2    2
    12     1     3   am
    13     3     4    1
    14     4     5   ar
    15     5     6   ar
    16     6     7   ar
    17     7     8   ar
    18     8     9   ar
    19     9    10    1
    20    11     3    1
    21    11    12    1
    22    12    13    1
    23    13    14    1
    24    14    15    1
    25    15    16    1
    26    21    22   ar
    27    22    23   ar
    28    29    30   ar
    29    30    25   ar
    30    23    18   ar
    31     9     4   ar
    32    16    11    1
    33    15    17    1
@<TRIPOS>MOLECULE
*****
 30 33 0 0 0
SMALL
GASTEIGER

@<TRIPOS>ATOM
      1 C          57.4682   95.6465   -3.1411 C.2     1  UNL1        0.2538
      2 O          57.2968   96.7286   -2.1165 O.2     1  UNL1       -0.2695
      3 N          56.2640   94.9737   -3.7301 N.am    1  UNL1       -0.2400
      4 C          56.4354   93.8917   -4.7547 C.ar    1  UNL1        0.1482
      5 N          56.4884   94.2407   -6.2125 N.ar    1  UNL1       -0.2279
      6 C          56.6598   93.1587   -7.2371 C.ar    1  UNL1        0.1004
      7 C          56.7784   91.7275   -6.8038 C.ar    1  UNL1        0.0216
      8 C          56.7254   91.3784   -5.3459 C.ar    1  UNL1        0.0158
      9 C          56.5540   92.4605   -4.3213 C.ar    1  UNL1        0.0896
     10 CL         56.5010   92.1114   -2.8635 Cl      1  UNL1       -0.0793
     11 C          54.8881   95.3830   -3.2946 C.3     1  UNL1        0.0972
     12 C          54.0092   96.1662   -4.2242 C.3     1  UNL1        0.0231
     13 C          52.6334   96.5755   -3.7886 C.3     1  UNL1        0.0188
     14 C          52.1365   96.2015   -2.4236 C.3     1  UNL1        0.0687
     15 N          53.0155   95.4184   -1.4941 N.3     1  UNL1       -0.2961
     16 C          54.3913   95.0091   -1.9296 C.3     1  UNL1        0.0890
     17 H          52.5120   94.5614   -1.2649 H       1  UNL1        0.1233
     18 C          61.5956   94.4185   -4.4475 C.ar    1  UNL1        0.0192
     19 C          60.8223   95.4220   -5.2506 C.ar    1  UNL1        0.0017
     20 C          59.4464   95.8314   -4.8151 C.ar    1  UNL1        0.0046
     21 C          58.8440   95.2372   -3.5766 C.ar    1  UNL1        0.0539
     22 C          59.6174   94.2337   -2.7735 C.ar    1  UNL1        0.0046
     23 C          60.9932   93.8244   -3.2090 C.ar    1  UNL1        0.0017
     24 C          65.9283   95.3698   -7.1536 C.3     1  UNL1        0.0538
     25 C          65.1378   94.4848   -6.2360 C.ar    1  UNL1        0.0784
     26 C          65.7230   93.1906   -5.7540 C.ar    1  UNL1        0.1135
     27 N          64.9324   92.3057   -4.8364 N.ar    1  UNL1       -0.2395
     28 C          63.5566   92.7149   -4.4010 C.ar    1  UNL1        0.1179
     29 C          62.9714   94.0092   -4.8830 C.ar    1  UNL1        0.1000
     30 N          63.7620   94.8941   -5.8006 N.ar    1  UNL1       -0.2465
@<TRIPOS>BOND
     1    24    25    1
     2    25    26   ar
     3    26    27   ar
     4    27    28   ar
     5    28    29   ar
     6    29    18    1
     7    18    19   ar
     8    19    20   ar
     9    20    21   ar
    10    21     1    1
    11     1     2    2
    12     1     3   am
    13     3     4    1
    14     4     5   ar
    15     5     6   ar
    16     6     7   ar
    17     7     8   ar
    18     8     9   ar
    19     9    10    1
    20    11     3    1
    21    11    12    1
    22    12    13    1
    23    13    14    1
    24    14    15    1
    25    15    16    1
    26    21    22   ar
    27    22    23   ar
    28    29    30   ar
    29    30    25   ar
    30    23    18   ar
    31     9     4   ar
    32    16    11    1
    33    15    17    1
@<TRIPOS>MOLECULE
*****
 30 33 0 0 0
SMALL
GASTEIGER

@<TRIPOS>ATOM
      1 C          59.3460   93.7003   -0.5147 C.2     1  UNL1        0.2538
      2 O          58.8435   93.1460    0.7853 O.2     1  UNL1       -0.2695
      3 N          60.8184   93.8892   -0.7304 N.am    1  UNL1       -0.2400
      4 C          61.3209   94.4436   -2.0305 C.ar    1  UNL1        0.1482
      5 N          61.7946   93.5148   -3.1088 N.ar    1  UNL1       -0.2279
      6 C          62.2972   94.0692   -4.4088 C.ar    1  UNL1        0.1004
      7 C          62.3259   95.5524   -4.6306 C.ar    1  UNL1        0.0216
      8 C          61.8522   96.4813   -3.5522 C.ar    1  UNL1        0.0158
      9 C          61.3497   95.9269   -2.2522 C.ar    1  UNL1        0.0896
     10 CL         60.8759   96.8557   -1.1739 Cl      1  UNL1       -0.0793
     11 C          61.7882   93.5238    0.3540 C.3     1  UNL1        0.0972
     12 C          61.6947   92.1849    1.0238 C.3     1  UNL1        0.0231
     13 C          62.6646   91.8195    2.1082 C.3     1  UNL1        0.0188
     14 C          63.7279   92.7929    2.5227 C.3     1  UNL1        0.0687
     15 N          63.8214   94.1318    1.8528 N.3     1  UNL1       -0.2961
     16 C          62.8515   94.4972    0.7685 C.3     1  UNL1        0.0890
     17 H          64.7547   94.1929    1.4460 H       1  UNL1        0.1233
     18 C          56.4367   94.7967   -3.7679 C.ar    1  UNL1        0.0192
     19 C          56.6510   95.7250   -2.6094 C.ar    1  UNL1        0.0017
     20 C          57.6209   95.3596   -1.5249 C.ar    1  UNL1        0.0046
     21 C          58.3763   94.0658   -1.5991 C.ar    1  UNL1        0.0539
     22 C          58.1619   93.1375   -2.7577 C.ar    1  UNL1        0.0046
     23 C          57.1921   93.5030   -3.8421 C.ar    1  UNL1        0.0017
     24 C          51.8593   96.7717   -5.2334 C.3     1  UNL1        0.0538
     25 C          53.1782   96.1497   -5.5851 C.ar    1  UNL1        0.0784
     26 C          53.5272   95.8931   -7.0211 C.ar    1  UNL1        0.1135
     27 N          54.8461   95.2711   -7.3728 N.ar    1  UNL1       -0.2395
     28 C          55.8159   94.9056   -6.2884 C.ar    1  UNL1        0.1179
     29 C          55.4668   95.1622   -4.8524 C.ar    1  UNL1        0.1000
     30 N          54.1480   95.7842   -4.5007 N.ar    1  UNL1       -0.2465
@<TRIPOS>BOND
     1    24    25    1
     2    25    26   ar
     3    26    27   ar
     4    27    28   ar
     5    28    29   ar
     6    29    18    1
     7    18    19   ar
     8    19    20   ar
     9    20    21   ar
    10    21     1    1
    11     1     2    2
    12     1     3   am
    13     3     4    1
    14     4     5   ar
    15     5     6   ar
    16     6     7   ar
    17     7     8   ar
    18     8     9   ar
    19     9    10    1
    20    11     3    1
    21    11    12    1
    22    12    13    1
    23    13    14    1
    24    14    15    1
    25    15    16    1
    26    21    22   ar
    27    22    23   ar
    28    29    30   ar
    29    30    25   ar
    30    23    18   ar
    31     9     4   ar
    32    16    11    1
    33    15    17    1
@<TRIPOS>MOLECULE
*****
 30 33 0 0 0
SMALL
GASTEIGER

@<TRIPOS>ATOM
      1 C          58.8603   95.6194   -2.7827 C.2     1  UNL1        0.2538
      2 O          58.9944   96.4834   -1.5639 O.2     1  UNL1       -0.2695
      3 N          57.5051   95.1556   -3.2279 N.am    1  UNL1       -0.2400
      4 C          57.3711   94.2915   -4.4467 C.ar    1  UNL1        0.1482
      5 N          57.1877   94.9209   -5.7958 N.ar    1  UNL1       -0.2279
      6 C          57.0537   94.0569   -7.0146 C.ar    1  UNL1        0.1004
      7 C          57.1031   92.5634   -6.8843 C.ar    1  UNL1        0.0216
      8 C          57.2866   91.9339   -5.5351 C.ar    1  UNL1        0.0158
      9 C          57.4206   92.7980   -4.3163 C.ar    1  UNL1        0.0896
     10 CL         57.6041   92.1686   -2.9672 Cl      1  UNL1       -0.0793
     11 C          56.2838   95.5560   -2.4544 C.3     1  UNL1        0.0972
     12 C          54.9331   95.0566   -2.8741 C.3     1  UNL1        0.0231
     13 C          53.7119   95.4570   -2.1006 C.3     1  UNL1        0.0188
     14 C          53.8415   96.3566   -0.9074 C.3     1  UNL1        0.0687
     15 N          55.1922   96.8560   -0.4877 N.3     1  UNL1       -0.2961
     16 C          56.4133   96.4556   -1.2612 C.3     1  UNL1        0.0890
     17 H          55.3363   96.5435    0.4725 H       1  UNL1        0.1233
     18 C          62.5240   94.4184   -5.1033 C.ar    1  UNL1        0.0192
     19 C          62.0942   93.6150   -3.9117 C.ar    1  UNL1        0.0017
     20 C          60.8730   94.0153   -3.1381 C.ar    1  UNL1        0.0046
     21 C          60.0815   95.2190   -3.5562 C.ar    1  UNL1        0.0539
     22 C          60.5114   96.0224   -4.7478 C.ar    1  UNL1        0.0046
     23 C          61.7326   95.6221   -5.5213 C.ar    1  UNL1        0.0017
     24 C          65.4306   90.7337   -7.3337 C.3     1  UNL1        0.0538
     25 C          65.1985   92.1757   -6.9920 C.ar    1  UNL1        0.0784
     26 C          66.1876   93.2174   -7.4239 C.ar    1  UNL1        0.1135
     27 N          65.9555   94.6594   -7.0822 N.ar    1  UNL1       -0.2395
     28 C          64.7344   95.0597   -6.3087 C.ar    1  UNL1        0.1179
     29 C          63.7453   94.0180   -5.8768 C.ar    1  UNL1        0.1000
     30 N          63.9773   92.5760   -6.2185 N.ar    1  UNL1       -0.2465
@<TRIPOS>BOND
     1    24    25    1
     2    25    26   ar
     3    26    27   ar
     4    27    28   ar
     5    28    29   ar
     6    29    18    1
     7    18    19   ar
     8    19    20   ar
     9    20    21   ar
    10    21     1    1
    11     1     2    2
    12     1     3   am
    13     3     4    1
    14     4     5   ar
    15     5     6   ar
    16     6     7   ar
    17     7     8   ar
    18     8     9   ar
    19     9    10    1
    20    11     3    1
    21    11    12    1
    22    12    13    1
    23    13    14    1
    24    14    15    1
    25    15    16    1
    26    21    22   ar
    27    22    23   ar
    28    29    30   ar
    29    30    25   ar
    30    23    18   ar
    31     9     4   ar
    32    16    11    1
    33    15    17    1
