@<TRIPOS>MOLECULE
*****
 30 34 0 0 0
SMALL
GASTEIGER

@<TRIPOS>ATOM
      1 C          71.9758   76.5510   13.7559 C.3     1  UNL1        0.0892
      2 C          73.0886   75.5623   13.9401 C.3     1  UNL1        0.1584
      3 O          72.8960   74.3744   14.8358 O.3     1  UNL1       -0.3490
      4 C          71.5905   74.1755   15.5472 C.3     1  UNL1        0.1538
      5 C          70.4776   75.1643   15.3629 C.3     1  UNL1        0.0841
      6 N          69.1721   74.9653   16.0743 N.3     1  UNL1       -0.3199
      7 C          70.6703   76.3520   14.4673 C.3     1  UNL1        0.0368
      8 H          69.2168   74.1146   16.6353 H       1  UNL1        0.1189
      9 H          68.4209   74.8819   15.3894 H       1  UNL1        0.1189
     10 C          71.5144   80.6911    5.8377 C.3     1  UNL1        0.0522
     11 C          71.9301   80.9255    7.2598 C.ar    1  UNL1        0.0626
     12 C          72.4808   82.2590    7.6701 C.ar    1  UNL1        0.0355
     13 C          72.8965   82.4934    9.0922 C.ar    1  UNL1        0.1033
     14 N          72.7614   81.3942   10.1039 N.ar    1  UNL1       -0.2113
     15 N          73.0857   81.3315   11.5671 N.ar    1  UNL1       -0.1669
     16 C          72.7353   79.9591   12.0611 C.ar    1  UNL1        0.0954
     17 C          72.1945   79.1738   10.9032 C.ar    1  UNL1        0.0463
     18 C          72.2107   80.0608    9.6936 C.ar    1  UNL1        0.1619
     19 N          71.7950   79.8264    8.2715 N.ar    1  UNL1       -0.2310
     20 C          71.8442   77.8015   11.3971 C.3     1  UNL1        0.1038
     21 N          72.1684   77.7387   12.8603 N.3     1  UNL1       -0.2627
     22 C          72.7192   79.0722   13.2707 C.3     1  UNL1        0.1205
     23 C          71.3978   72.9877   16.4428 C.ar    1  UNL1        0.0355
     24 C          71.3319   73.1725   17.9298 C.ar    1  UNL1        0.0300
     25 C          71.1392   71.9848   18.8254 C.ar    1  UNL1        0.1400
     26 F          71.0733   72.1697   20.3125 F       1  UNL1       -0.2042
     27 C          71.0125   70.6123   18.2340 C.ar    1  UNL1        0.0319
     28 C          71.0784   70.4273   16.7469 C.ar    1  UNL1        0.0317
     29 C          71.2711   71.6151   15.8513 C.ar    1  UNL1        0.1386
     30 F          71.3370   71.4302   14.3641 F       1  UNL1       -0.2044
@<TRIPOS>BOND
     1    10    11    1
     2    11    12   ar
     3    12    13   ar
     4    13    14   ar
     5    14    15   ar
     6    15    16   ar
     7    16    17   ar
     8    17    18   ar
     9    18    19   ar
    10    17    20    1
    11    20    21    1
    12     1    21    1
    13     1     2    1
    14     2     3    1
    15     3     4    1
    16     4    23    1
    17    23    24   ar
    18    24    25   ar
    19    25    26    1
    20    25    27   ar
    21    27    28   ar
    22    28    29   ar
    23    29    30    1
    24     4     5    1
    25     5     6    1
    26     5     7    1
    27    21    22    1
    28    19    11   ar
    29     7     1    1
    30    18    14   ar
    31    29    23   ar
    32    22    16    1
    33     6     8    1
    34     6     9    1
@<TRIPOS>MOLECULE
*****
 30 34 0 0 0
SMALL
GASTEIGER

@<TRIPOS>ATOM
      1 C          64.2037   88.6675   13.3194 C.3     1  UNL1        0.0892
      2 C          63.2460   88.1390   12.2930 C.3     1  UNL1        0.1584
      3 O          62.7828   86.7140   12.3628 O.3     1  UNL1       -0.3490
      4 C          63.2774   85.8174   13.4590 C.3     1  UNL1        0.1538
      5 C          64.2351   86.3460   14.4854 C.3     1  UNL1        0.0841
      6 N          64.7297   85.4495   15.5816 N.3     1  UNL1       -0.3199
      7 C          64.6983   87.7710   14.4156 C.3     1  UNL1        0.0368
      8 H          64.3159   84.5232   15.4760 H       1  UNL1        0.1189
      9 H          64.4639   85.8396   16.4858 H       1  UNL1        0.1189
     10 C          65.6921   96.3349    8.9552 C.3     1  UNL1        0.0522
     11 C          65.8255   95.7160   10.3150 C.ar    1  UNL1        0.0626
     12 C          66.3826   96.5187   11.4530 C.ar    1  UNL1        0.0355
     13 C          66.5160   95.8998   12.8128 C.ar    1  UNL1        0.1033
     14 N          66.0922   94.4782   13.0346 N.ar    1  UNL1       -0.2113
     15 N          66.1049   93.6057   14.2547 N.ar    1  UNL1       -0.1669
     16 C          65.5556   92.2637   13.8708 C.ar    1  UNL1        0.0954
     17 C          65.2034   92.3068   12.4134 C.ar    1  UNL1        0.0463
     18 C          65.5351   93.6754   11.8966 C.ar    1  UNL1        0.1619
     19 N          65.4017   94.2944   10.5368 N.ar    1  UNL1       -0.2310
     20 C          64.6541   90.9649   12.0294 C.3     1  UNL1        0.1038
     21 N          64.6668   90.0925   13.2495 N.3     1  UNL1       -0.2627
     22 C          65.2240   90.8952   14.3876 C.3     1  UNL1        0.1205
     23 C          62.8142   84.3925   13.5288 C.ar    1  UNL1        0.0355
     24 C          63.0455   83.4709   12.3682 C.ar    1  UNL1        0.0300
     25 C          62.5824   82.0460   12.4380 C.ar    1  UNL1        0.1400
     26 F          62.8137   81.1245   11.2773 F       1  UNL1       -0.2042
     27 C          61.8880   81.5425   13.6685 C.ar    1  UNL1        0.0319
     28 C          61.6566   82.4640   14.8292 C.ar    1  UNL1        0.0317
     29 C          62.1198   83.8890   14.7594 C.ar    1  UNL1        0.1386
     30 F          61.8885   84.8106   15.9202 F       1  UNL1       -0.2044
@<TRIPOS>BOND
     1    10    11    1
     2    11    12   ar
     3    12    13   ar
     4    13    14   ar
     5    14    15   ar
     6    15    16   ar
     7    16    17   ar
     8    17    18   ar
     9    18    19   ar
    10    17    20    1
    11    20    21    1
    12     1    21    1
    13     1     2    1
    14     2     3    1
    15     3     4    1
    16     4    23    1
    17    23    24   ar
    18    24    25   ar
    19    25    26    1
    20    25    27   ar
    21    27    28   ar
    22    28    29   ar
    23    29    30    1
    24     4     5    1
    25     5     6    1
    26     5     7    1
    27    21    22    1
    28    19    11   ar
    29     7     1    1
    30    18    14   ar
    31    29    23   ar
    32    22    16    1
    33     6     8    1
    34     6     9    1
@<TRIPOS>MOLECULE
*****
 30 34 0 0 0
SMALL
GASTEIGER

@<TRIPOS>ATOM
      1 C          63.5398   86.4967   13.4491 C.3     1  UNL1        0.0892
      2 C          62.6236   85.9349   12.4026 C.3     1  UNL1        0.1584
      3 O          62.2078   84.4950   12.4646 O.3     1  UNL1       -0.3490
      4 C          62.7081   83.6169   13.5730 C.3     1  UNL1        0.1538
      5 C          63.6243   84.1787   14.6195 C.3     1  UNL1        0.0841
      6 N          64.1247   83.3006   15.7279 N.3     1  UNL1       -0.3199
      7 C          64.0402   85.6186   14.5575 C.3     1  UNL1        0.0368
      8 H          63.7451   82.3607   15.6148 H       1  UNL1        0.1189
      9 H          63.8258   83.6823   16.6254 H       1  UNL1        0.1189
     10 C          68.3780   93.4971   16.2127 C.3     1  UNL1        0.0522
     11 C          67.3304   93.1208   15.2072 C.ar    1  UNL1        0.0626
     12 C          66.7969   94.1524   14.2580 C.ar    1  UNL1        0.0355
     13 C          65.7494   93.7761   13.2525 C.ar    1  UNL1        0.1033
     14 N          65.2353   92.3680   13.1963 N.ar    1  UNL1       -0.2113
     15 N          64.2130   91.7070   12.3200 N.ar    1  UNL1       -0.1669
     16 C          64.1147   90.2668   12.7276 C.ar    1  UNL1        0.0954
     17 C          65.0762   90.0377   13.8558 C.ar    1  UNL1        0.0463
     18 C          65.7688   91.3364   14.1454 C.ar    1  UNL1        0.1619
     19 N          66.8164   91.7127   15.1509 N.ar    1  UNL1       -0.2310
     20 C          64.9779   88.5976   14.2634 C.3     1  UNL1        0.1038
     21 N          63.9556   87.9366   13.3871 N.3     1  UNL1       -0.2627
     22 C          63.4221   88.9682   12.4379 C.3     1  UNL1        0.1205
     23 C          62.2923   82.1770   13.6350 C.ar    1  UNL1        0.0355
     24 C          60.9194   81.8129   14.1171 C.ar    1  UNL1        0.0300
     25 C          60.5036   80.3731   14.1791 C.ar    1  UNL1        0.1400
     26 F          59.1306   80.0090   14.6612 F       1  UNL1       -0.2042
     27 C          61.4607   79.2973   13.7590 C.ar    1  UNL1        0.0319
     28 C          62.8337   79.6613   13.2770 C.ar    1  UNL1        0.0317
     29 C          63.2495   81.1012   13.2150 C.ar    1  UNL1        0.1386
     30 F          64.6225   81.4653   12.7329 F       1  UNL1       -0.2044
@<TRIPOS>BOND
     1    10    11    1
     2    11    12   ar
     3    12    13   ar
     4    13    14   ar
     5    14    15   ar
     6    15    16   ar
     7    16    17   ar
     8    17    18   ar
     9    18    19   ar
    10    17    20    1
    11    20    21    1
    12     1    21    1
    13     1     2    1
    14     2     3    1
    15     3     4    1
    16     4    23    1
    17    23    24   ar
    18    24    25   ar
    19    25    26    1
    20    25    27   ar
    21    27    28   ar
    22    28    29   ar
    23    29    30    1
    24     4     5    1
    25     5     6    1
    26     5     7    1
    27    21    22    1
    28    19    11   ar
    29     7     1    1
    30    18    14   ar
    31    29    23   ar
    32    22    16    1
    33     6     8    1
    34     6     9    1
@<TRIPOS>MOLECULE
*****
 30 34 0 0 0
SMALL
GASTEIGER

@<TRIPOS>ATOM
      1 C          58.1792   94.4858   -2.3732 C.3     1  UNL1        0.0892
      2 C          59.1061   93.3441   -2.6686 C.3     1  UNL1        0.1584
      3 O          60.1587   92.9557   -1.6729 O.3     1  UNL1       -0.3490
      4 C          60.2843   93.7089   -0.3818 C.3     1  UNL1        0.1538
      5 C          59.3572   94.8507   -0.0865 C.3     1  UNL1        0.0841
      6 N          59.4828   95.6040    1.2046 N.3     1  UNL1       -0.3199
      7 C          58.3047   95.2391   -1.0821 C.3     1  UNL1        0.0368
      8 H          60.2439   95.2084    1.7564 H       1  UNL1        0.1189
      9 H          58.6100   95.5306    1.7273 H       1  UNL1        0.1189
     10 C          49.8440   96.8415   -4.6153 C.3     1  UNL1        0.0522
     11 C          51.1918   96.5842   -5.2213 C.ar    1  UNL1        0.0626
     12 C          51.3877   96.7246   -6.7018 C.ar    1  UNL1        0.0355
     13 C          52.7355   96.4673   -7.3077 C.ar    1  UNL1        0.1033
     14 N          53.8874   96.0697   -6.4332 N.ar    1  UNL1       -0.2113
     15 N          55.3206   95.7534   -6.7432 N.ar    1  UNL1       -0.1669
     16 C          56.0105   95.4176   -5.4543 C.ar    1  UNL1        0.0954
     17 C          55.0037   95.5263   -4.3477 C.ar    1  UNL1        0.0463
     18 C          53.6916   95.9293   -4.9527 C.ar    1  UNL1        0.1619
     19 N          52.3438   96.1866   -4.3468 N.ar    1  UNL1       -0.2310
     20 C          55.6936   95.1905   -3.0589 C.3     1  UNL1        0.1038
     21 N          57.1267   94.8742   -3.3689 N.3     1  UNL1       -0.2627
     22 C          57.3226   95.0146   -4.8493 C.3     1  UNL1        0.1205
     23 C          61.3367   93.3205    0.6138 C.ar    1  UNL1        0.0355
     24 C          62.7873   93.5189    0.2878 C.ar    1  UNL1        0.0300
     25 C          63.8398   93.1305    1.2834 C.ar    1  UNL1        0.1400
     26 F          65.2904   93.3289    0.9573 F       1  UNL1       -0.2042
     27 C          63.4417   92.5437    2.6052 C.ar    1  UNL1        0.0319
     28 C          61.9911   92.3453    2.9313 C.ar    1  UNL1        0.0317
     29 C          60.9386   92.7337    1.9356 C.ar    1  UNL1        0.1386
     30 F          59.4879   92.5353    2.2618 F       1  UNL1       -0.2044
@<TRIPOS>BOND
     1    10    11    1
     2    11    12   ar
     3    12    13   ar
     4    13    14   ar
     5    14    15   ar
     6    15    16   ar
     7    16    17   ar
     8    17    18   ar
     9    18    19   ar
    10    17    20    1
    11    20    21    1
    12     1    21    1
    13     1     2    1
    14     2     3    1
    15     3     4    1
    16     4    23    1
    17    23    24   ar
    18    24    25   ar
    19    25    26    1
    20    25    27   ar
    21    27    28   ar
    22    28    29   ar
    23    29    30    1
    24     4     5    1
    25     5     6    1
    26     5     7    1
    27    21    22    1
    28    19    11   ar
    29     7     1    1
    30    18    14   ar
    31    29    23   ar
    32    22    16    1
    33     6     8    1
    34     6     9    1
@<TRIPOS>MOLECULE
*****
 30 34 0 0 0
SMALL
GASTEIGER

@<TRIPOS>ATOM
      1 C          71.7284   76.7347   13.2474 C.3     1  UNL1        0.0892
      2 C          71.1981   76.6770   11.8455 C.3     1  UNL1        0.1584
      3 O          71.4780   77.7997   10.8909 O.3     1  UNL1       -0.3490
      4 C          72.2883   78.9801   11.3382 C.3     1  UNL1        0.1538
      5 C          72.8187   79.0378   12.7403 C.3     1  UNL1        0.0841
      6 N          73.6290   80.2181   13.1876 N.3     1  UNL1       -0.3199
      7 C          72.5387   77.9151   13.6948 C.3     1  UNL1        0.0368
      8 H          73.7200   80.8799   12.4168 H       1  UNL1        0.1189
      9 H          74.5552   79.9045   13.4776 H       1  UNL1        0.1189
     10 C          73.1353   68.5084   16.4725 C.3     1  UNL1        0.0522
     11 C          72.2858   69.7245   16.6949 C.ar    1  UNL1        0.0626
     12 C          71.2681   69.7372   17.7967 C.ar    1  UNL1        0.0355
     13 C          70.4186   70.9533   18.0191 C.ar    1  UNL1        0.1033
     14 N          70.5868   72.1567   17.1397 N.ar    1  UNL1       -0.2113
     15 N          69.8982   73.4891   17.1194 N.ar    1  UNL1       -0.1669
     16 C          70.4904   74.3000   16.0050 C.ar    1  UNL1        0.0954
     17 C          71.5449   73.4687   15.3366 C.ar    1  UNL1        0.0463
     18 C          71.6045   72.1440   16.0379 C.ar    1  UNL1        0.1619
     19 N          72.4540   70.9279   15.8155 N.ar    1  UNL1       -0.2310
     20 C          72.1370   74.2795   14.2222 C.3     1  UNL1        0.1038
     21 N          71.4484   75.6120   14.2019 N.3     1  UNL1       -0.2627
     22 C          70.4307   75.6247   15.3038 C.3     1  UNL1        0.1205
     23 C          72.5683   80.1028   10.3837 C.ar    1  UNL1        0.0355
     24 C          72.1765   81.5060   10.7406 C.ar    1  UNL1        0.0300
     25 C          72.4565   82.6287    9.7861 C.ar    1  UNL1        0.1400
     26 F          72.0647   84.0319   10.1431 F       1  UNL1       -0.2042
     27 C          73.1282   82.3482    8.4746 C.ar    1  UNL1        0.0319
     28 C          73.5200   80.9450    8.1177 C.ar    1  UNL1        0.0317
     29 C          73.2401   79.8223    9.0722 C.ar    1  UNL1        0.1386
     30 F          73.6319   78.4189    8.7152 F       1  UNL1       -0.2044
@<TRIPOS>BOND
     1    10    11    1
     2    11    12   ar
     3    12    13   ar
     4    13    14   ar
     5    14    15   ar
     6    15    16   ar
     7    16    17   ar
     8    17    18   ar
     9    18    19   ar
    10    17    20    1
    11    20    21    1
    12     1    21    1
    13     1     2    1
    14     2     3    1
    15     3     4    1
    16     4    23    1
    17    23    24   ar
    18    24    25   ar
    19    25    26    1
    20    25    27   ar
    21    27    28   ar
    22    28    29   ar
    23    29    30    1
    24     4     5    1
    25     5     6    1
    26     5     7    1
    27    21    22    1
    28    19    11   ar
    29     7     1    1
    30    18    14   ar
    31    29    23   ar
    32    22    16    1
    33     6     8    1
    34     6     9    1
@<TRIPOS>MOLECULE
*****
 30 34 0 0 0
SMALL
GASTEIGER

@<TRIPOS>ATOM
      1 C          63.8730   86.9036   13.7418 C.3     1  UNL1        0.0892
      2 C          62.9242   86.4878   12.6569 C.3     1  UNL1        0.1584
      3 O          62.4616   85.0635   12.5702 O.3     1  UNL1       -0.3490
      4 C          62.9479   84.0550   13.5685 C.3     1  UNL1        0.1538
      5 C          63.8967   84.4708   14.6534 C.3     1  UNL1        0.0841
      6 N          64.3829   83.4623   15.6517 N.3     1  UNL1       -0.3199
      7 C          64.3592   85.8951   14.7400 C.3     1  UNL1        0.0368
      8 H          63.9708   82.5526   15.4443 H       1  UNL1        0.1189
      9 H          64.1093   83.7536   16.5901 H       1  UNL1        0.1189
     10 C          65.8204   94.8594   10.1412 C.3     1  UNL1        0.0522
     11 C          65.7999   94.1434   11.4591 C.ar    1  UNL1        0.0626
     12 C          66.2202   94.8594   12.7083 C.ar    1  UNL1        0.0355
     13 C          66.1998   94.1434   14.0262 C.ar    1  UNL1        0.1033
     14 N          65.7590   92.7113   14.0950 N.ar    1  UNL1       -0.2113
     15 N          65.6356   91.7530   15.2423 N.ar    1  UNL1       -0.1669
     16 C          65.1390   90.4447   14.7022 C.ar    1  UNL1        0.0954
     17 C          64.9554   90.5944   13.2211 C.ar    1  UNL1        0.0463
     18 C          65.3386   91.9952   12.8458 C.ar    1  UNL1        0.1619
     19 N          65.3591   92.7113   11.5279 N.ar    1  UNL1       -0.2310
     20 C          64.4589   89.2861   12.6810 C.3     1  UNL1        0.1038
     21 N          64.3355   88.3278   13.8284 N.3     1  UNL1       -0.2627
     22 C          64.7558   89.0439   15.0776 C.3     1  UNL1        0.1205
     23 C          62.4853   82.6307   13.4819 C.ar    1  UNL1        0.0355
     24 C          61.2339   82.2042   14.1902 C.ar    1  UNL1        0.0300
     25 C          60.7713   80.7799   14.1036 C.ar    1  UNL1        0.1400
     26 F          59.5198   80.3534   14.8119 F       1  UNL1       -0.2042
     27 C          61.5603   79.7822   13.3087 C.ar    1  UNL1        0.0319
     28 C          62.8118   80.2087   12.6003 C.ar    1  UNL1        0.0317
     29 C          63.2744   81.6329   12.6870 C.ar    1  UNL1        0.1386
     30 F          64.5260   82.0595   11.9786 F       1  UNL1       -0.2044
@<TRIPOS>BOND
     1    10    11    1
     2    11    12   ar
     3    12    13   ar
     4    13    14   ar
     5    14    15   ar
     6    15    16   ar
     7    16    17   ar
     8    17    18   ar
     9    18    19   ar
    10    17    20    1
    11    20    21    1
    12     1    21    1
    13     1     2    1
    14     2     3    1
    15     3     4    1
    16     4    23    1
    17    23    24   ar
    18    24    25   ar
    19    25    26    1
    20    25    27   ar
    21    27    28   ar
    22    28    29   ar
    23    29    30    1
    24     4     5    1
    25     5     6    1
    26     5     7    1
    27    21    22    1
    28    19    11   ar
    29     7     1    1
    30    18    14   ar
    31    29    23   ar
    32    22    16    1
    33     6     8    1
    34     6     9    1
@<TRIPOS>MOLECULE
*****
 30 34 0 0 0
SMALL
GASTEIGER

@<TRIPOS>ATOM
      1 C          61.0914   87.8163    9.5367 C.3     1  UNL1        0.0892
      2 C          61.2444   89.3085    9.5387 C.3     1  UNL1        0.1584
      3 O          60.6179   90.1281    8.4497 O.3     1  UNL1       -0.3490
      4 C          59.8384   89.4556    7.3587 C.3     1  UNL1        0.1538
      5 C          59.6855   87.9633    7.3568 C.3     1  UNL1        0.0841
      6 N          58.9060   87.2907    6.2658 N.3     1  UNL1       -0.3199
      7 C          60.3119   87.1437    8.4457 C.3     1  UNL1        0.0368
      8 H          58.5541   87.9940    5.6162 H       1  UNL1        0.1189
      9 H          58.1218   86.7811    6.6728 H       1  UNL1        0.1189
     10 C          62.6850   80.0841   13.7468 C.3     1  UNL1        0.0522
     11 C          63.0053   81.5475   13.8235 C.ar    1  UNL1        0.0626
     12 C          63.8828   82.0665   14.9238 C.ar    1  UNL1        0.0355
     13 C          64.2030   83.5299   15.0006 C.ar    1  UNL1        0.1033
     14 N          63.6458   84.4743   13.9771 N.ar    1  UNL1       -0.2113
     15 N          63.7869   85.9568   13.7972 N.ar    1  UNL1       -0.1669
     16 C          62.9965   86.3540   12.5857 C.ar    1  UNL1        0.0954
     17 C          62.3670   85.1170   12.0169 C.ar    1  UNL1        0.0463
     18 C          62.7684   83.9553   12.8768 C.ar    1  UNL1        0.1619
     19 N          62.4481   82.4919   12.8000 N.ar    1  UNL1       -0.2310
     20 C          61.5768   85.5143   10.8055 C.3     1  UNL1        0.1038
     21 N          61.7178   86.9967   10.6256 N.3     1  UNL1       -0.2627
     22 C          62.5953   87.5157   11.7259 C.3     1  UNL1        0.1205
     23 C          59.2120   90.2752    6.2698 C.ar    1  UNL1        0.0355
     24 C          57.7186   90.3727    6.1692 C.ar    1  UNL1        0.0300
     25 C          57.0922   91.1923    5.0803 C.ar    1  UNL1        0.1400
     26 F          55.5987   91.2899    4.9798 F       1  UNL1       -0.2042
     27 C          57.9591   91.9143    4.0919 C.ar    1  UNL1        0.0319
     28 C          59.4526   91.8168    4.1924 C.ar    1  UNL1        0.0317
     29 C          60.0790   90.9972    5.2814 C.ar    1  UNL1        0.1386
     30 F          61.5725   90.8996    5.3819 F       1  UNL1       -0.2044
@<TRIPOS>BOND
     1    10    11    1
     2    11    12   ar
     3    12    13   ar
     4    13    14   ar
     5    14    15   ar
     6    15    16   ar
     7    16    17   ar
     8    17    18   ar
     9    18    19   ar
    10    17    20    1
    11    20    21    1
    12     1    21    1
    13     1     2    1
    14     2     3    1
    15     3     4    1
    16     4    23    1
    17    23    24   ar
    18    24    25   ar
    19    25    26    1
    20    25    27   ar
    21    27    28   ar
    22    28    29   ar
    23    29    30    1
    24     4     5    1
    25     5     6    1
    26     5     7    1
    27    21    22    1
    28    19    11   ar
    29     7     1    1
    30    18    14   ar
    31    29    23   ar
    32    22    16    1
    33     6     8    1
    34     6     9    1
@<TRIPOS>MOLECULE
*****
 30 34 0 0 0
SMALL
GASTEIGER

@<TRIPOS>ATOM
      1 C          59.6862   93.5379   -2.5864 C.3     1  UNL1        0.0892
      2 C          60.7411   94.5254   -2.9889 C.3     1  UNL1        0.1584
      3 O          61.7596   94.9847   -1.9879 O.3     1  UNL1       -0.3490
      4 C          61.7230   94.4566   -0.5844 C.3     1  UNL1        0.1538
      5 C          60.6680   93.4691   -0.1819 C.3     1  UNL1        0.0841
      6 N          60.6314   92.9409    1.2215 N.3     1  UNL1       -0.3199
      7 C          59.6496   93.0098   -1.1829 C.3     1  UNL1        0.0368
      8 H          61.3905   93.3567    1.7612 H       1  UNL1        0.1189
      9 H          60.7408   91.9269    1.2062 H       1  UNL1        0.1189
     10 C          52.8984   88.3267   -5.1980 C.3     1  UNL1        0.0522
     11 C          53.7768   89.4395   -5.6881 C.ar    1  UNL1        0.0626
     12 C          53.5893   89.9895   -7.0709 C.ar    1  UNL1        0.0355
     13 C          54.4678   91.1023   -7.5609 C.ar    1  UNL1        0.1033
     14 N          55.5337   91.6650   -6.6681 N.ar    1  UNL1       -0.2113
     15 N          56.5433   92.7550   -6.8742 N.ar    1  UNL1       -0.1669
     16 C          57.3548   92.8786   -5.6187 C.ar    1  UNL1        0.0954
     17 C          56.8467   91.8650   -4.6367 C.ar    1  UNL1        0.0463
     18 C          55.7211   91.1150   -5.2853 C.ar    1  UNL1        0.1619
     19 N          54.8427   90.0022   -4.7952 N.ar    1  UNL1       -0.2310
     20 C          57.6582   91.9887   -3.3813 C.3     1  UNL1        0.1038
     21 N          58.6678   93.0786   -3.5874 N.3     1  UNL1       -0.2627
     22 C          58.4804   93.6287   -4.9702 C.3     1  UNL1        0.1205
     23 C          62.7413   94.9159    0.4166 C.ar    1  UNL1        0.0355
     24 C          64.0392   94.1775    0.5589 C.ar    1  UNL1        0.0300
     25 C          65.0575   94.6368    1.5599 C.ar    1  UNL1        0.1400
     26 F          66.3554   93.8984    1.7021 F       1  UNL1       -0.2042
     27 C          64.7780   95.8345    2.4185 C.ar    1  UNL1        0.0319
     28 C          63.4801   96.5729    2.2763 C.ar    1  UNL1        0.0317
     29 C          62.4618   96.1136    1.2753 C.ar    1  UNL1        0.1386
     30 F          61.1638   96.8520    1.1330 F       1  UNL1       -0.2044
@<TRIPOS>BOND
     1    10    11    1
     2    11    12   ar
     3    12    13   ar
     4    13    14   ar
     5    14    15   ar
     6    15    16   ar
     7    16    17   ar
     8    17    18   ar
     9    18    19   ar
    10    17    20    1
    11    20    21    1
    12     1    21    1
    13     1     2    1
    14     2     3    1
    15     3     4    1
    16     4    23    1
    17    23    24   ar
    18    24    25   ar
    19    25    26    1
    20    25    27   ar
    21    27    28   ar
    22    28    29   ar
    23    29    30    1
    24     4     5    1
    25     5     6    1
    26     5     7    1
    27    21    22    1
    28    19    11   ar
    29     7     1    1
    30    18    14   ar
    31    29    23   ar
    32    22    16    1
    33     6     8    1
    34     6     9    1
