@<TRIPOS>MOLECULE
*****
 32 35 0 0 0
SMALL
GASTEIGER

@<TRIPOS>ATOM
      1 N          61.2507   89.8637   10.9507 N.pl3   1  UNL1       -0.3114
      2 H          60.3863   90.3187   11.0734 H       1  UNL1        0.1523
      3 C          62.5228   90.5487   11.3540 C.ar    1  UNL1        0.0710
      4 C          63.3058   91.3324   10.3427 C.ar    1  UNL1        0.0369
      5 C          64.5778   92.0174   10.7460 C.ar    1  UNL1        0.1003
      6 N          65.0669   91.9186   12.1606 N.ar    1  UNL1       -0.2406
      7 C          64.2840   91.1348   13.1719 C.ar    1  UNL1        0.1205
      8 C          64.5157   90.8619   14.6285 C.ar    1  UNL1        0.1163
      9 N          63.3868   90.0082   15.1255 N.ar    1  UNL1       -0.2385
     10 N          62.4574   89.7535   13.9760 N.ar    1  UNL1       -0.1659
     11 C          63.0119   90.4499   12.7686 C.ar    1  UNL1        0.1333
     12 C          63.2172   89.4986   16.5261 C.3     1  UNL1        0.2116
     13 C          63.2036   88.0222   16.7905 C.2     1  UNL1        0.2443
     14 N          63.5540   87.0607   15.6940 N.am    1  UNL1       -0.3272
     15 O          62.8397   87.5074   18.1516 O.2     1  UNL1       -0.2732
     16 H          63.7928   87.3986   14.8006 H       1  UNL1        0.1450
     17 H          63.5450   86.0916   15.8675 H       1  UNL1        0.1450
     18 C          59.9160   89.3138    8.3208 C.3     1  UNL1        0.0340
     19 C          60.6283   88.2104    9.0456 C.ar    1  UNL1        0.0107
     20 C          60.6732   86.8321    8.4554 C.ar    1  UNL1        0.0958
     21 N          61.3855   85.7288    9.1802 N.ar    1  UNL1       -0.2440
     22 C          62.0528   86.0037   10.4951 C.ar    1  UNL1        0.0847
     23 C          62.0079   87.3820   11.0853 C.ar    1  UNL1        0.0335
     24 C          61.2956   88.4854   10.3605 C.ar    1  UNL1        0.0473
     25 C          62.7651   84.9004   11.2200 C.ar    1  UNL1        0.0460
     26 C          62.6667   84.7981   12.7132 C.ar    1  UNL1        0.0151
     27 C          63.3790   83.6948   13.4379 C.ar    1  UNL1        0.0579
     28 CL         63.2806   83.5925   14.9313 Cl      1  UNL1       -0.0822
     29 C          64.1897   82.6937   12.6694 C.ar    1  UNL1        0.0137
     30 C          64.2881   82.7960   11.1762 C.ar    1  UNL1        0.0306
     31 C          63.5758   83.8993   10.4514 C.ar    1  UNL1        0.1416
     32 F          63.6742   84.0016    8.9581 F       1  UNL1       -0.2041
@<TRIPOS>BOND
     1    18    19    1
     2    19    20   ar
     3    20    21   ar
     4    21    22   ar
     5    22    25    1
     6    25    26   ar
     7    26    27   ar
     8    27    28    1
     9    27    29   ar
    10    29    30   ar
    11    30    31   ar
    12    31    32    1
    13    22    23   ar
    14    23    24   ar
    15    24     1    1
    16     1     3    1
    17     3     4   ar
    18     4     5   ar
    19     5     6   ar
    20     6     7   ar
    21     7     8   ar
    22     8     9   ar
    23     9    12    1
    24    12    13    1
    25    13    14   am
    26    13    15    2
    27     9    10   ar
    28    10    11   ar
    29    24    19   ar
    30    11     3   ar
    31    31    25   ar
    32    11     7   ar
    33     1     2    1
    34    14    16    1
    35    14    17    1
@<TRIPOS>MOLECULE
*****
 32 35 0 0 0
SMALL
GASTEIGER

@<TRIPOS>ATOM
      1 N          64.5489   85.5460   15.5113 N.pl3   1  UNL1       -0.3114
      2 H          65.3072   85.2428   16.0611 H       1  UNL1        0.1523
      3 C          63.8834   84.5945   14.5615 C.ar    1  UNL1        0.0710
      4 C          63.8240   83.1310   14.8847 C.ar    1  UNL1        0.0369
      5 C          63.1585   82.1797   13.9349 C.ar    1  UNL1        0.1003
      6 N          62.5525   82.6919   12.6619 N.ar    1  UNL1       -0.2406
      7 C          62.6120   84.1554   12.3388 C.ar    1  UNL1        0.1205
      8 C          62.1062   84.9463   11.1689 C.ar    1  UNL1        0.1163
      9 N          62.4591   86.3865   11.3956 N.ar    1  UNL1       -0.2385
     10 N          63.1829   86.4857   12.7056 N.ar    1  UNL1       -0.1659
     11 C          63.2774   85.1067   13.2885 C.ar    1  UNL1        0.1333
     12 C          62.1435   87.5272   10.4740 C.3     1  UNL1        0.2116
     13 C          60.8026   88.1961   10.5403 C.2     1  UNL1        0.2443
     14 N          59.9018   87.9555   11.7154 N.am    1  UNL1       -0.3272
     15 O          60.3624   89.1055    9.4316 O.2     1  UNL1       -0.2732
     16 H          60.1908   87.3587   12.4430 H       1  UNL1        0.1450
     17 H          59.0217   88.3945   11.7589 H       1  UNL1        0.1450
     18 C          62.7977   86.3485   17.8112 C.3     1  UNL1        0.0340
     19 C          63.1833   87.3605   16.7733 C.ar    1  UNL1        0.0107
     20 C          62.6933   88.7738   16.8854 C.ar    1  UNL1        0.0958
     21 N          63.0789   89.7858   15.8475 N.ar    1  UNL1       -0.2440
     22 C          63.9544   89.3845   14.6976 C.ar    1  UNL1        0.0847
     23 C          64.4444   87.9712   14.5855 C.ar    1  UNL1        0.0335
     24 C          64.0589   86.9592   15.6233 C.ar    1  UNL1        0.0473
     25 C          64.3400   90.3965   13.6597 C.ar    1  UNL1        0.0460
     26 C          63.5998   90.4535   12.3563 C.ar    1  UNL1        0.0151
     27 C          63.9854   91.4655   11.3184 C.ar    1  UNL1        0.0579
     28 CL         63.2452   91.5225   10.0150 Cl      1  UNL1       -0.0822
     29 C          65.1112   92.4205   11.5840 C.ar    1  UNL1        0.0137
     30 C          65.8514   92.3636   12.8874 C.ar    1  UNL1        0.0306
     31 C          65.4658   91.3516   13.9252 C.ar    1  UNL1        0.1416
     32 F          66.2060   91.2946   15.2287 F       1  UNL1       -0.2041
@<TRIPOS>BOND
     1    18    19    1
     2    19    20   ar
     3    20    21   ar
     4    21    22   ar
     5    22    25    1
     6    25    26   ar
     7    26    27   ar
     8    27    28    1
     9    27    29   ar
    10    29    30   ar
    11    30    31   ar
    12    31    32    1
    13    22    23   ar
    14    23    24   ar
    15    24     1    1
    16     1     3    1
    17     3     4   ar
    18     4     5   ar
    19     5     6   ar
    20     6     7   ar
    21     7     8   ar
    22     8     9   ar
    23     9    12    1
    24    12    13    1
    25    13    14   am
    26    13    15    2
    27     9    10   ar
    28    10    11   ar
    29    24    19   ar
    30    11     3   ar
    31    31    25   ar
    32    11     7   ar
    33     1     2    1
    34    14    16    1
    35    14    17    1
@<TRIPOS>MOLECULE
*****
 32 35 0 0 0
SMALL
GASTEIGER

@<TRIPOS>ATOM
      1 N          62.4837   90.4570   12.8255 N.pl3   1  UNL1       -0.3114
      2 H          61.8166   90.6727   13.5166 H       1  UNL1        0.1523
      3 C          62.0993   89.6057   11.6517 C.ar    1  UNL1        0.0710
      4 C          61.4203   90.2253   10.4664 C.ar    1  UNL1        0.0369
      5 C          61.0360   89.3741    9.2927 C.ar    1  UNL1        0.1003
      6 N          61.3306   87.9034    9.3042 N.ar    1  UNL1       -0.2406
      7 C          62.0097   87.2838   10.4896 C.ar    1  UNL1        0.1205
      8 C          62.4256   85.8731   10.7841 C.ar    1  UNL1        0.1163
      9 N          63.0670   85.8524   12.1399 N.ar    1  UNL1       -0.2385
     10 N          63.0475   87.2503   12.6833 N.ar    1  UNL1       -0.1659
     11 C          62.3940   88.1350   11.6633 C.ar    1  UNL1        0.1333
     12 C          63.6292   84.6455   12.8310 C.3     1  UNL1        0.2116
     13 C          63.8720   84.6738   14.3109 C.2     1  UNL1        0.2443
     14 N          65.2685   84.5502   14.8443 N.am    1  UNL1       -0.3272
     15 O          62.7183   84.8258   15.2575 O.2     1  UNL1       -0.2732
     16 H          66.0257   84.4505   14.2230 H       1  UNL1        0.1450
     17 H          65.4279   84.5688   15.8156 H       1  UNL1        0.1450
     18 C          64.1413   89.7633   15.2279 C.3     1  UNL1        0.0340
     19 C          64.7134   90.6325   14.1476 C.ar    1  UNL1        0.0107
     20 C          66.1143   91.1549   14.2684 C.ar    1  UNL1        0.0958
     21 N          66.6864   92.0242   13.1880 N.ar    1  UNL1       -0.2440
     22 C          65.8576   92.3709   11.9869 C.ar    1  UNL1        0.0847
     23 C          64.4567   91.8485   11.8660 C.ar    1  UNL1        0.0335
     24 C          63.8846   90.9794   12.9464 C.ar    1  UNL1        0.0473
     25 C          66.4297   93.2402   10.9065 C.ar    1  UNL1        0.0460
     26 C          65.8693   94.6116   10.6717 C.ar    1  UNL1        0.0151
     27 C          66.4414   95.4807    9.5914 C.ar    1  UNL1        0.0579
     28 CL         65.8809   96.8522    9.3566 Cl      1  UNL1       -0.0822
     29 C          67.5739   94.9785    8.7457 C.ar    1  UNL1        0.0137
     30 C          68.1344   93.6071    8.9805 C.ar    1  UNL1        0.0306
     31 C          67.5623   92.7380   10.0608 C.ar    1  UNL1        0.1416
     32 F          68.1228   91.3665   10.2956 F       1  UNL1       -0.2041
@<TRIPOS>BOND
     1    18    19    1
     2    19    20   ar
     3    20    21   ar
     4    21    22   ar
     5    22    25    1
     6    25    26   ar
     7    26    27   ar
     8    27    28    1
     9    27    29   ar
    10    29    30   ar
    11    30    31   ar
    12    31    32    1
    13    22    23   ar
    14    23    24   ar
    15    24     1    1
    16     1     3    1
    17     3     4   ar
    18     4     5   ar
    19     5     6   ar
    20     6     7   ar
    21     7     8   ar
    22     8     9   ar
    23     9    12    1
    24    12    13    1
    25    13    14   am
    26    13    15    2
    27     9    10   ar
    28    10    11   ar
    29    24    19   ar
    30    11     3   ar
    31    31    25   ar
    32    11     7   ar
    33     1     2    1
    34    14    16    1
    35    14    17    1
@<TRIPOS>MOLECULE
*****
 32 35 0 0 0
SMALL
GASTEIGER

@<TRIPOS>ATOM
      1 N          62.7985   90.6522   11.1993 N.pl3   1  UNL1       -0.3114
      2 H          62.6951   91.2974   10.4629 H       1  UNL1        0.1523
      3 C          63.7268   90.9560   12.3378 C.ar    1  UNL1        0.0710
      4 C          63.6568   90.1469   13.5989 C.ar    1  UNL1        0.0369
      5 C          64.5850   90.4507   14.7373 C.ar    1  UNL1        0.1003
      6 N          65.5832   91.5637   14.6147 N.ar    1  UNL1       -0.2406
      7 C          65.6531   92.3728   13.3536 C.ar    1  UNL1        0.1205
      8 C          66.5264   93.5221   12.9456 C.ar    1  UNL1        0.1163
      9 N          66.1379   93.9286   11.5550 N.ar    1  UNL1       -0.2385
     10 N          65.0245   93.0305   11.1035 N.ar    1  UNL1       -0.1659
     11 C          64.7249   92.0690   12.2152 C.ar    1  UNL1        0.1333
     12 C          66.7545   95.0384   10.7560 C.3     1  UNL1        0.2116
     13 C          67.4569   94.7334    9.4662 C.2     1  UNL1        0.2443
     14 N          66.8547   95.1686    8.1632 N.am    1  UNL1       -0.3272
     15 O          68.7614   93.9931    9.4794 O.2     1  UNL1       -0.2732
     16 H          65.9985   95.6545    8.1546 H       1  UNL1        0.1450
     17 H          67.3156   94.9684    7.3167 H       1  UNL1        0.1450
     18 C          59.7989   90.7002   11.1889 C.3     1  UNL1        0.0340
     19 C          60.5281   89.3894   11.1776 C.ar    1  UNL1        0.0107
     20 C          59.7575   88.1026   11.1612 C.ar    1  UNL1        0.0958
     21 N          60.4867   86.7918   11.1499 N.ar    1  UNL1       -0.2440
     22 C          61.9865   86.7678   11.1551 C.ar    1  UNL1        0.0847
     23 C          62.7571   88.0546   11.1716 C.ar    1  UNL1        0.0335
     24 C          62.0279   89.3654   11.1828 C.ar    1  UNL1        0.0473
     25 C          62.7157   85.4570   11.1438 C.ar    1  UNL1        0.0460
     26 C          63.0473   84.7721   12.4364 C.ar    1  UNL1        0.0151
     27 C          63.7765   83.4613   12.4251 C.ar    1  UNL1        0.0579
     28 CL         64.1080   82.7763   13.7178 Cl      1  UNL1       -0.0822
     29 C          64.1741   82.8355   11.1212 C.ar    1  UNL1        0.0137
     30 C          63.8426   83.5205    9.8286 C.ar    1  UNL1        0.0306
     31 C          63.1134   84.8312    9.8399 C.ar    1  UNL1        0.1416
     32 F          62.7819   85.5162    8.5472 F       1  UNL1       -0.2041
@<TRIPOS>BOND
     1    18    19    1
     2    19    20   ar
     3    20    21   ar
     4    21    22   ar
     5    22    25    1
     6    25    26   ar
     7    26    27   ar
     8    27    28    1
     9    27    29   ar
    10    29    30   ar
    11    30    31   ar
    12    31    32    1
    13    22    23   ar
    14    23    24   ar
    15    24     1    1
    16     1     3    1
    17     3     4   ar
    18     4     5   ar
    19     5     6   ar
    20     6     7   ar
    21     7     8   ar
    22     8     9   ar
    23     9    12    1
    24    12    13    1
    25    13    14   am
    26    13    15    2
    27     9    10   ar
    28    10    11   ar
    29    24    19   ar
    30    11     3   ar
    31    31    25   ar
    32    11     7   ar
    33     1     2    1
    34    14    16    1
    35    14    17    1
@<TRIPOS>MOLECULE
*****
 32 35 0 0 0
SMALL
GASTEIGER

@<TRIPOS>ATOM
      1 N          61.2185   85.9643   10.6484 N.pl3   1  UNL1       -0.3114
      2 H          60.3031   85.6045   10.6036 H       1  UNL1        0.1523
      3 C          62.3828   85.0335   10.8164 C.ar    1  UNL1        0.0710
      4 C          63.0606   84.4549    9.6098 C.ar    1  UNL1        0.0369
      5 C          64.2249   83.5242    9.7779 C.ar    1  UNL1        0.1003
      6 N          64.7112   83.1720   11.1524 N.ar    1  UNL1       -0.2406
      7 C          64.0334   83.7506   12.3590 C.ar    1  UNL1        0.1205
      8 C          64.2879   83.5873   13.8281 C.ar    1  UNL1        0.1163
      9 N          63.2810   84.4171   14.5681 N.ar    1  UNL1       -0.2385
     10 N          62.4041   85.0933   13.5563 N.ar    1  UNL1       -0.1659
     11 C          62.8691   84.6813   12.1909 C.ar    1  UNL1        0.1333
     12 C          63.1705   84.5478   16.0584 C.3     1  UNL1        0.2116
     13 C          62.9417   85.8944   16.6783 C.2     1  UNL1        0.2443
     14 N          63.5050   87.1240   16.0297 N.am    1  UNL1       -0.3272
     15 O          62.1496   86.0114   17.9467 O.2     1  UNL1       -0.2732
     16 H          64.0249   87.0472   15.1972 H       1  UNL1        0.1450
     17 H          63.3549   88.0079   16.4365 H       1  UNL1        0.1450
     18 C          60.0053   87.5222    8.3898 C.3     1  UNL1        0.0340
     19 C          60.8422   88.2221    9.4192 C.ar    1  UNL1        0.0107
     20 C          61.0726   89.7009    9.3193 C.ar    1  UNL1        0.0958
     21 N          61.9096   90.4008   10.3488 N.ar    1  UNL1       -0.2440
     22 C          62.5162   89.6218   11.4780 C.ar    1  UNL1        0.0847
     23 C          62.2858   88.1430   11.5779 C.ar    1  UNL1        0.0335
     24 C          61.4489   87.4431   10.5485 C.ar    1  UNL1        0.0473
     25 C          63.3532   90.3216   12.5075 C.ar    1  UNL1        0.0460
     26 C          63.1119   90.0714   13.9666 C.ar    1  UNL1        0.0151
     27 C          63.9489   90.7712   14.9960 C.ar    1  UNL1        0.0579
     28 CL         63.7076   90.5210   16.4552 Cl      1  UNL1       -0.0822
     29 C          65.0271   91.7213   14.5663 C.ar    1  UNL1        0.0137
     30 C          65.2684   91.9715   13.1071 C.ar    1  UNL1        0.0306
     31 C          64.4315   91.2717   12.0778 C.ar    1  UNL1        0.1416
     32 F          64.6727   91.5219   10.6185 F       1  UNL1       -0.2041
@<TRIPOS>BOND
     1    18    19    1
     2    19    20   ar
     3    20    21   ar
     4    21    22   ar
     5    22    25    1
     6    25    26   ar
     7    26    27   ar
     8    27    28    1
     9    27    29   ar
    10    29    30   ar
    11    30    31   ar
    12    31    32    1
    13    22    23   ar
    14    23    24   ar
    15    24     1    1
    16     1     3    1
    17     3     4   ar
    18     4     5   ar
    19     5     6   ar
    20     6     7   ar
    21     7     8   ar
    22     8     9   ar
    23     9    12    1
    24    12    13    1
    25    13    14   am
    26    13    15    2
    27     9    10   ar
    28    10    11   ar
    29    24    19   ar
    30    11     3   ar
    31    31    25   ar
    32    11     7   ar
    33     1     2    1
    34    14    16    1
    35    14    17    1
@<TRIPOS>MOLECULE
*****
 32 35 0 0 0
SMALL
GASTEIGER

@<TRIPOS>ATOM
      1 N          62.4290   90.4686   12.9217 N.pl3   1  UNL1       -0.3114
      2 H          61.7342   90.7032   13.5785 H       1  UNL1        0.1523
      3 C          62.0764   89.6451   11.7185 C.ar    1  UNL1        0.0710
      4 C          61.4374   90.2939   10.5266 C.ar    1  UNL1        0.0369
      5 C          61.0849   89.4703    9.3235 C.ar    1  UNL1        0.1003
      6 N          61.3713   87.9980    9.3124 N.ar    1  UNL1       -0.2406
      7 C          62.0103   87.3492   10.5043 C.ar    1  UNL1        0.1205
      8 C          62.4095   85.9300   10.7809 C.ar    1  UNL1        0.1163
      9 N          63.0089   85.8764   12.1549 N.ar    1  UNL1       -0.2385
     10 N          62.9800   87.2625   12.7275 N.ar    1  UNL1       -0.1659
     11 C          62.3629   88.1727   11.7073 C.ar    1  UNL1        0.1333
     12 C          63.5432   84.6517   12.8366 C.3     1  UNL1        0.2116
     13 C          62.7916   84.0435   13.9834 C.2     1  UNL1        0.2443
     14 N          62.3226   84.9083   15.1156 N.am    1  UNL1       -0.3272
     15 O          62.5089   82.5704   13.9978 O.2     1  UNL1       -0.2732
     16 H          62.5081   85.8751   15.1061 H       1  UNL1        0.1450
     17 H          61.8292   84.5091   15.8683 H       1  UNL1        0.1450
     18 C          63.8240   89.9416   15.5248 C.3     1  UNL1        0.0340
     19 C          64.5378   90.6712   14.4257 C.ar    1  UNL1        0.0107
     20 C          65.9491   91.1373   14.6281 C.ar    1  UNL1        0.0958
     21 N          66.6629   91.8669   13.5289 N.ar    1  UNL1       -0.2440
     22 C          65.9655   92.1304   12.2273 C.ar    1  UNL1        0.0847
     23 C          64.5541   91.6643   12.0249 C.ar    1  UNL1        0.0335
     24 C          63.8403   90.9347   13.1241 C.ar    1  UNL1        0.0473
     25 C          66.6793   92.8600   11.1281 C.ar    1  UNL1        0.0460
     26 C          67.5671   92.1076   10.1817 C.ar    1  UNL1        0.0151
     27 C          68.2808   92.8372    9.0826 C.ar    1  UNL1        0.0579
     28 CL         69.1687   92.0848    8.1361 Cl      1  UNL1       -0.0822
     29 C          68.1068   94.3192    8.9298 C.ar    1  UNL1        0.0137
     30 C          67.2189   95.0716    9.8762 C.ar    1  UNL1        0.0306
     31 C          66.5052   94.3420   10.9753 C.ar    1  UNL1        0.1416
     32 F          65.6173   95.0944   11.9217 F       1  UNL1       -0.2041
@<TRIPOS>BOND
     1    18    19    1
     2    19    20   ar
     3    20    21   ar
     4    21    22   ar
     5    22    25    1
     6    25    26   ar
     7    26    27   ar
     8    27    28    1
     9    27    29   ar
    10    29    30   ar
    11    30    31   ar
    12    31    32    1
    13    22    23   ar
    14    23    24   ar
    15    24     1    1
    16     1     3    1
    17     3     4   ar
    18     4     5   ar
    19     5     6   ar
    20     6     7   ar
    21     7     8   ar
    22     8     9   ar
    23     9    12    1
    24    12    13    1
    25    13    14   am
    26    13    15    2
    27     9    10   ar
    28    10    11   ar
    29    24    19   ar
    30    11     3   ar
    31    31    25   ar
    32    11     7   ar
    33     1     2    1
    34    14    16    1
    35    14    17    1
@<TRIPOS>MOLECULE
*****
 32 35 0 0 0
SMALL
GASTEIGER

@<TRIPOS>ATOM
      1 N          62.4593   89.9823   12.7728 N.pl3   1  UNL1       -0.3114
      2 H          62.2240   90.1007   13.7215 H       1  UNL1        0.1523
      3 C          63.3974   90.9448   12.1069 C.ar    1  UNL1        0.0710
      4 C          63.2774   91.2129   10.6360 C.ar    1  UNL1        0.0369
      5 C          64.2155   92.1754    9.9701 C.ar    1  UNL1        0.1003
      6 N          65.2737   92.8698   10.7752 N.ar    1  UNL1       -0.2406
      7 C          65.3937   92.6017   12.2461 C.ar    1  UNL1        0.1205
      8 C          66.3305   93.1332   13.2901 C.ar    1  UNL1        0.1163
      9 N          65.9714   92.4991   14.6012 N.ar    1  UNL1       -0.2385
     10 N          64.8126   91.5758   14.3675 N.ar    1  UNL1       -0.1659
     11 C          64.4556   91.6392   12.9120 C.ar    1  UNL1        0.1333
     12 C          66.6516   92.7453   15.9153 C.3     1  UNL1        0.2116
     13 C          68.1182   93.0576   15.9537 C.2     1  UNL1        0.2443
     14 N          69.1209   91.9911   15.6265 N.am    1  UNL1       -0.3272
     15 O          68.5821   94.4364   16.3194 O.2     1  UNL1       -0.2732
     16 H          68.8165   91.0862   15.3865 H       1  UNL1        0.1450
     17 H          70.0835   92.1961   15.6517 H       1  UNL1        0.1450
     18 C          59.8739   90.3346   11.2923 C.3     1  UNL1        0.0340
     19 C          60.5868   89.0155   11.2531 C.ar    1  UNL1        0.0107
     20 C          60.0071   87.8725   10.4737 C.ar    1  UNL1        0.0958
     21 N          60.7201   86.5533   10.4346 N.ar    1  UNL1       -0.2440
     22 C          62.0128   86.3772   11.1748 C.ar    1  UNL1        0.0847
     23 C          62.5925   87.5201   11.9542 C.ar    1  UNL1        0.0335
     24 C          61.8795   88.8393   11.9934 C.ar    1  UNL1        0.0473
     25 C          62.7258   85.0580   11.1356 C.ar    1  UNL1        0.0460
     26 C          62.8437   84.2319   12.3821 C.ar    1  UNL1        0.0151
     27 C          63.5567   82.9128   12.3429 C.ar    1  UNL1        0.0579
     28 CL         63.6747   82.0867   13.5894 Cl      1  UNL1       -0.0822
     29 C          64.1517   82.4198   11.0572 C.ar    1  UNL1        0.0137
     30 C          64.0337   83.2458    9.8108 C.ar    1  UNL1        0.0306
     31 C          63.3208   84.5649    9.8500 C.ar    1  UNL1        0.1416
     32 F          63.2027   85.3911    8.6035 F       1  UNL1       -0.2041
@<TRIPOS>BOND
     1    18    19    1
     2    19    20   ar
     3    20    21   ar
     4    21    22   ar
     5    22    25    1
     6    25    26   ar
     7    26    27   ar
     8    27    28    1
     9    27    29   ar
    10    29    30   ar
    11    30    31   ar
    12    31    32    1
    13    22    23   ar
    14    23    24   ar
    15    24     1    1
    16     1     3    1
    17     3     4   ar
    18     4     5   ar
    19     5     6   ar
    20     6     7   ar
    21     7     8   ar
    22     8     9   ar
    23     9    12    1
    24    12    13    1
    25    13    14   am
    26    13    15    2
    27     9    10   ar
    28    10    11   ar
    29    24    19   ar
    30    11     3   ar
    31    31    25   ar
    32    11     7   ar
    33     1     2    1
    34    14    16    1
    35    14    17    1
@<TRIPOS>MOLECULE
*****
 32 35 0 0 0
SMALL
GASTEIGER

@<TRIPOS>ATOM
      1 N          63.2361   89.1374   13.5453 N.pl3   1  UNL1       -0.3114
      2 H          62.9401   89.3037   14.4694 H       1  UNL1        0.1523
      3 C          63.7365   90.2726   12.7022 C.ar    1  UNL1        0.0710
      4 C          63.2201   90.4541   11.3057 C.ar    1  UNL1        0.0369
      5 C          63.7205   91.5894   10.4626 C.ar    1  UNL1        0.1003
      6 N          64.7374   92.5431   11.0161 N.ar    1  UNL1       -0.2406
      7 C          65.2539   92.3616   12.4126 C.ar    1  UNL1        0.1205
      8 C          66.2505   93.1364   13.2228 C.ar    1  UNL1        0.1163
      9 N          66.3659   92.4800   14.5667 N.ar    1  UNL1       -0.2385
     10 N          65.4407   91.2995   14.5870 N.ar    1  UNL1       -0.1659
     11 C          64.7534   91.2264   13.2556 C.ar    1  UNL1        0.1333
     12 C          67.2513   92.9259   15.6925 C.3     1  UNL1        0.2116
     13 C          68.6987   93.2238   15.4356 C.2     1  UNL1        0.2443
     14 N          69.4811   92.3735   14.4792 N.am    1  UNL1       -0.3272
     15 O          69.3637   94.3721   16.1350 O.2     1  UNL1       -0.2732
     16 H          69.0447   91.6198   14.0202 H       1  UNL1        0.1450
     17 H          70.4312   92.5690   14.3106 H       1  UNL1        0.1450
     18 C          64.2693   86.8257   15.1543 C.3     1  UNL1        0.0340
     19 C          63.7032   86.5928   13.7849 C.ar    1  UNL1        0.0107
     20 C          63.6537   85.2042   13.2200 C.ar    1  UNL1        0.0958
     21 N          63.0875   84.9713   11.8505 N.ar    1  UNL1       -0.2440
     22 C          62.5709   86.1272   11.0461 C.ar    1  UNL1        0.0847
     23 C          62.6204   87.5158   11.6110 C.ar    1  UNL1        0.0335
     24 C          63.1866   87.7487   12.9804 C.ar    1  UNL1        0.0473
     25 C          62.0048   85.8943    9.6766 C.ar    1  UNL1        0.0460
     26 C          60.6699   86.4712    9.3089 C.ar    1  UNL1        0.0151
     27 C          60.1038   86.2383    7.9395 C.ar    1  UNL1        0.0579
     28 CL         58.7688   86.8152    7.5717 Cl      1  UNL1       -0.0822
     29 C          60.8726   85.4286    6.9378 C.ar    1  UNL1        0.0137
     30 C          62.2075   84.8518    7.3056 C.ar    1  UNL1        0.0306
     31 C          62.7736   85.0846    8.6749 C.ar    1  UNL1        0.1416
     32 F          64.1085   84.5078    9.0427 F       1  UNL1       -0.2041
@<TRIPOS>BOND
     1    18    19    1
     2    19    20   ar
     3    20    21   ar
     4    21    22   ar
     5    22    25    1
     6    25    26   ar
     7    26    27   ar
     8    27    28    1
     9    27    29   ar
    10    29    30   ar
    11    30    31   ar
    12    31    32    1
    13    22    23   ar
    14    23    24   ar
    15    24     1    1
    16     1     3    1
    17     3     4   ar
    18     4     5   ar
    19     5     6   ar
    20     6     7   ar
    21     7     8   ar
    22     8     9   ar
    23     9    12    1
    24    12    13    1
    25    13    14   am
    26    13    15    2
    27     9    10   ar
    28    10    11   ar
    29    24    19   ar
    30    11     3   ar
    31    31    25   ar
    32    11     7   ar
    33     1     2    1
    34    14    16    1
    35    14    17    1
@<TRIPOS>MOLECULE
*****
 32 35 0 0 0
SMALL
GASTEIGER

@<TRIPOS>ATOM
      1 N          63.2852   90.7430   13.4483 N.pl3   1  UNL1       -0.3114
      2 H          62.3938   91.1560   13.5112 H       1  UNL1        0.1523
      3 C          63.4175   89.2500   13.3874 C.ar    1  UNL1        0.0710
      4 C          64.1788   88.5204   14.4541 C.ar    1  UNL1        0.0369
      5 C          64.3111   87.0275   14.3932 C.ar    1  UNL1        0.1003
      6 N          63.6819   86.2642   13.2655 N.ar    1  UNL1       -0.2406
      7 C          62.9206   86.9939   12.1988 C.ar    1  UNL1        0.1205
      8 C          62.1979   86.5141   10.9750 C.ar    1  UNL1        0.1163
      9 N          61.6190   87.7105   10.2796 N.ar    1  UNL1       -0.2385
     10 N          61.9839   88.9297   11.0736 N.ar    1  UNL1       -0.1659
     11 C          62.7883   88.4867   12.2597 C.ar    1  UNL1        0.1333
     12 C          60.8162   87.6911    9.0126 C.3     1  UNL1        0.2116
     13 C          60.7340   86.4355    8.1961 C.2     1  UNL1        0.2443
     14 N          59.4180   85.9972    7.6250 N.am    1  UNL1       -0.3272
     15 O          61.9676   85.6183    7.9506 O.2     1  UNL1       -0.2732
     16 H          58.6084   86.5336    7.7861 H       1  UNL1        0.1450
     17 H          59.3640   85.1732    7.0890 H       1  UNL1        0.1450
     18 C          64.6388   91.5305   16.0071 C.3     1  UNL1        0.0340
     19 C          65.1880   92.0003   14.6927 C.ar    1  UNL1        0.0107
     20 C          66.4140   92.8639   14.6577 C.ar    1  UNL1        0.0958
     21 N          66.9632   93.3337   13.3433 N.ar    1  UNL1       -0.2440
     22 C          66.2864   92.9399   12.0639 C.ar    1  UNL1        0.0847
     23 C          65.0604   92.0763   12.0989 C.ar    1  UNL1        0.0335
     24 C          64.5112   91.6065   13.4133 C.ar    1  UNL1        0.0473
     25 C          66.8355   93.4097   10.7494 C.ar    1  UNL1        0.0460
     26 C          66.3700   94.7097   10.1637 C.ar    1  UNL1        0.0151
     27 C          66.9192   95.1795    8.8493 C.ar    1  UNL1        0.0579
     28 CL         66.4537   96.4796    8.2635 Cl      1  UNL1       -0.0822
     29 C          67.9339   94.3492    8.1206 C.ar    1  UNL1        0.0137
     30 C          68.3994   93.0491    8.7063 C.ar    1  UNL1        0.0306
     31 C          67.8502   92.5794   10.0207 C.ar    1  UNL1        0.1416
     32 F          68.3158   91.2793   10.6065 F       1  UNL1       -0.2041
@<TRIPOS>BOND
     1    18    19    1
     2    19    20   ar
     3    20    21   ar
     4    21    22   ar
     5    22    25    1
     6    25    26   ar
     7    26    27   ar
     8    27    28    1
     9    27    29   ar
    10    29    30   ar
    11    30    31   ar
    12    31    32    1
    13    22    23   ar
    14    23    24   ar
    15    24     1    1
    16     1     3    1
    17     3     4   ar
    18     4     5   ar
    19     5     6   ar
    20     6     7   ar
    21     7     8   ar
    22     8     9   ar
    23     9    12    1
    24    12    13    1
    25    13    14   am
    26    13    15    2
    27     9    10   ar
    28    10    11   ar
    29    24    19   ar
    30    11     3   ar
    31    31    25   ar
    32    11     7   ar
    33     1     2    1
    34    14    16    1
    35    14    17    1
