@<TRIPOS>MOLECULE
*****
 38 42 0 0 0
SMALL
GASTEIGER

@<TRIPOS>ATOM
      1 C          63.1195   87.3506   12.4289 C.3     1  UNL1        0.1522
      2 C          63.1521   85.8863   12.7527 C.3     1  UNL1        0.0313
      3 C          63.9204   85.7109   14.0291 C.3     1  UNL1        0.0264
      4 C          64.3625   87.0668   14.4940 C.3     1  UNL1        0.0942
      5 N          63.8675   88.0801   13.5050 N.am    1  UNL1       -0.2713
      6 C          64.0827   89.5627   13.5791 C.2     1  UNL1        0.2509
      7 O          63.5251   90.4559   12.5109 O.2     1  UNL1       -0.2727
      8 O          63.0969   89.1427   10.5480 O.2     1  UNL1       -0.2730
      9 C          62.4553   87.9755   11.2379 C.2     1  UNL1        0.2442
     10 N          61.1496   87.4332   10.7368 N.am    1  UNL1       -0.2826
     11 H          60.7285   86.6672   11.1897 H       1  UNL1        0.1549
     12 C          60.4854   88.0582    9.5458 C.ar    1  UNL1        0.0505
     13 C          60.0045   87.1957    8.4168 C.ar    1  UNL1        0.0178
     14 C          59.3404   87.8206    7.2259 C.ar    1  UNL1        0.0388
     15 C          59.1572   89.3081    7.1640 C.ar    1  UNL1        0.1454
     16 C          59.6381   90.1707    8.2930 C.ar    1  UNL1        0.0388
     17 C          60.3022   89.5457    9.4839 C.ar    1  UNL1        0.0178
     18 O          58.4930   89.9331    5.9730 O.3     1  UNL1       -0.4535
     19 C          59.2774   90.8294    5.0613 C.ar    1  UNL1        0.1454
     20 C          58.5812   91.9158    4.2964 C.ar    1  UNL1        0.0398
     21 C          59.3657   92.8122    3.3847 C.ar    1  UNL1        0.0328
     22 C          60.8463   92.6222    3.2379 C.ar    1  UNL1        0.1403
     23 F          61.6307   93.5185    2.3262 F       1  UNL1       -0.2042
     24 C          61.5425   91.5358    4.0028 C.ar    1  UNL1        0.0328
     25 C          60.7581   90.6395    4.9145 C.ar    1  UNL1        0.0398
     26 C          64.1978   84.4083   14.7193 C.3     1  UNL1        0.0281
     27 C          63.5710   83.1430   14.2132 C.ar    1  UNL1       -0.0221
     28 C          62.2927   82.6447   14.8197 C.ar    1  UNL1       -0.0043
     29 C          61.6659   81.3793   14.3136 C.ar    1  UNL1       -0.0003
     30 C          62.3174   80.6124   13.2013 C.ar    1  UNL1       -0.0000
     31 C          63.5957   81.1108   12.5948 C.ar    1  UNL1       -0.0003
     32 C          64.2224   82.3760   13.1009 C.ar    1  UNL1       -0.0043
     33 C          64.8557   90.1522   14.7216 C.3     1  UNL1        0.2138
     34 N          65.7813   91.3083   14.4836 N.ar    1  UNL1       -0.2206
     35 C          67.2779   91.2736   14.5784 C.ar    1  UNL1        0.1977
     36 N          67.7943   92.6460   14.2625 N.ar    1  UNL1       -0.2007
     37 C          66.6168   93.5289   13.9724 C.ar    1  UNL1        0.2210
     38 N          65.3727   92.7022   14.1091 N.ar    1  UNL1       -0.1447
@<TRIPOS>BOND
     1     8     9    2
     2     9    10   am
     3    10    12    1
     4    12    13   ar
     5    13    14   ar
     6    14    15   ar
     7    15    18    1
     8    18    19    1
     9    19    20   ar
    10    20    21   ar
    11    21    22   ar
    12    22    23    1
    13    22    24   ar
    14    24    25   ar
    15    15    16   ar
    16    16    17   ar
    17     1     9    1
    18     1     2    1
    19     2     3    1
    20     3    26    1
    21    26    27    1
    22    27    28   ar
    23    28    29   ar
    24    29    30   ar
    25    30    31   ar
    26    31    32   ar
    27     3     4    1
    28     4     5    1
    29     5     6   am
    30     6     7    2
    31     6    33    1
    32    33    34    1
    33    34    35   ar
    34    35    36   ar
    35    36    37   ar
    36    37    38   ar
    37    17    12   ar
    38     5     1    1
    39    38    34   ar
    40    25    19   ar
    41    32    27   ar
    42    10    11    1
@<TRIPOS>MOLECULE
*****
 38 42 0 0 0
SMALL
GASTEIGER

@<TRIPOS>ATOM
      1 C          62.8175   85.5554   11.6349 C.3     1  UNL1        0.1522
      2 C          62.9035   84.0630   11.7587 C.3     1  UNL1        0.0313
      3 C          63.5860   83.7441   13.0559 C.3     1  UNL1        0.0264
      4 C          63.9218   85.0395   13.7336 C.3     1  UNL1        0.0942
      5 N          63.4468   86.1589   12.8554 N.am    1  UNL1       -0.2713
      6 C          63.5781   87.6245   13.1465 C.2     1  UNL1        0.2509
      7 O          63.0527   88.6334   12.1687 O.2     1  UNL1       -0.2727
      8 O          62.8905   86.3269    9.1550 O.2     1  UNL1       -0.2730
      9 C          62.2089   86.3115   10.4911 C.2     1  UNL1        0.2442
     10 N          60.9189   87.0523   10.6836 N.am    1  UNL1       -0.2826
     11 H          60.4716   87.0422   11.5605 H       1  UNL1        0.1549
     12 C          60.3104   87.8084    9.5399 C.ar    1  UNL1        0.0505
     13 C          59.5558   87.0736    8.4719 C.ar    1  UNL1        0.0178
     14 C          58.9473   87.8297    7.3283 C.ar    1  UNL1        0.0388
     15 C          59.0934   89.3207    7.2526 C.ar    1  UNL1        0.1454
     16 C          59.8480   90.0555    8.3205 C.ar    1  UNL1        0.0388
     17 C          60.4565   89.2994    9.4642 C.ar    1  UNL1        0.0178
     18 O          58.4848   90.0768    6.1089 O.3     1  UNL1       -0.4535
     19 C          59.3607   90.8630    5.1790 C.ar    1  UNL1        0.1454
     20 C          60.8194   90.5329    5.0640 C.ar    1  UNL1        0.0398
     21 C          61.6952   91.3191    4.1340 C.ar    1  UNL1        0.0328
     22 C          61.1123   92.4354    3.3191 C.ar    1  UNL1        0.1403
     23 F          61.9882   93.2216    2.3891 F       1  UNL1       -0.2042
     24 C          59.6536   92.7655    3.4341 C.ar    1  UNL1        0.0328
     25 C          58.7778   91.9794    4.3640 C.ar    1  UNL1        0.0398
     26 C          63.8809   82.3710   13.5828 C.3     1  UNL1        0.0281
     27 C          62.7799   81.3587   13.6960 C.ar    1  UNL1       -0.0221
     28 C          61.4246   81.7762   14.1850 C.ar    1  UNL1       -0.0043
     29 C          60.3236   80.7638   14.2983 C.ar    1  UNL1       -0.0003
     30 C          60.5778   79.3341   13.9225 C.ar    1  UNL1       -0.0000
     31 C          61.9330   78.9166   13.4335 C.ar    1  UNL1       -0.0003
     32 C          63.0340   79.9289   13.3203 C.ar    1  UNL1       -0.0043
     33 C          64.2348   88.0813   14.4154 C.3     1  UNL1        0.2138
     34 N          64.3201   89.5452   14.7310 N.ar    1  UNL1       -0.2206
     35 C          63.4976   90.2768   15.7500 C.ar    1  UNL1        0.1977
     36 N          63.9120   91.7183   15.7318 N.ar    1  UNL1       -0.2007
     37 C          64.9906   91.8775   14.7016 C.ar    1  UNL1        0.2210
     38 N          65.2428   90.5345   14.0831 N.ar    1  UNL1       -0.1447
@<TRIPOS>BOND
     1     8     9    2
     2     9    10   am
     3    10    12    1
     4    12    13   ar
     5    13    14   ar
     6    14    15   ar
     7    15    18    1
     8    18    19    1
     9    19    20   ar
    10    20    21   ar
    11    21    22   ar
    12    22    23    1
    13    22    24   ar
    14    24    25   ar
    15    15    16   ar
    16    16    17   ar
    17     1     9    1
    18     1     2    1
    19     2     3    1
    20     3    26    1
    21    26    27    1
    22    27    28   ar
    23    28    29   ar
    24    29    30   ar
    25    30    31   ar
    26    31    32   ar
    27     3     4    1
    28     4     5    1
    29     5     6   am
    30     6     7    2
    31     6    33    1
    32    33    34    1
    33    34    35   ar
    34    35    36   ar
    35    36    37   ar
    36    37    38   ar
    37    17    12   ar
    38     5     1    1
    39    38    34   ar
    40    25    19   ar
    41    32    27   ar
    42    10    11    1
@<TRIPOS>MOLECULE
*****
 38 42 0 0 0
SMALL
GASTEIGER

@<TRIPOS>ATOM
      1 C          61.8738   93.7028    1.0708 C.3     1  UNL1        0.1522
      2 C          63.2652   94.2194    0.8536 C.3     1  UNL1        0.0313
      3 C          63.2316   95.1665   -0.3092 C.3     1  UNL1        0.0264
      4 C          61.8195   95.2351   -0.8106 C.3     1  UNL1        0.0942
      5 N          60.9803   94.3305    0.0424 N.am    1  UNL1       -0.2713
      6 C          59.5065   94.0949   -0.1069 C.2     1  UNL1        0.2509
      7 O          58.7986   93.1570    0.8254 O.2     1  UNL1       -0.2727
      8 O          62.2343   91.4691    2.3479 O.2     1  UNL1       -0.2730
      9 C          61.4502   92.7293    2.1306 C.2     1  UNL1        0.2442
     10 N          60.2427   93.0160    2.9730 N.am    1  UNL1       -0.2826
     11 H          59.7282   93.8431    2.8303 H       1  UNL1        0.1549
     12 C          59.8192   92.0425    4.0327 C.ar    1  UNL1        0.0505
     13 C          60.8435   91.1883    4.7190 C.ar    1  UNL1        0.0178
     14 C          60.4200   90.2149    5.7787 C.ar    1  UNL1        0.0388
     15 C          58.9721   90.0957    6.1521 C.ar    1  UNL1        0.1454
     16 C          57.9477   90.9499    5.4658 C.ar    1  UNL1        0.0388
     17 C          58.3713   91.9233    4.4061 C.ar    1  UNL1        0.0178
     18 O          58.5485   89.1222    7.2118 O.3     1  UNL1       -0.4535
     19 C          59.5680   88.2429    7.8732 C.ar    1  UNL1        0.1454
     20 C          60.4372   88.7926    8.9652 C.ar    1  UNL1        0.0398
     21 C          61.4568   87.9133    9.6265 C.ar    1  UNL1        0.0328
     22 C          61.6071   86.4843    9.1959 C.ar    1  UNL1        0.1403
     23 F          62.6266   85.6051    9.8573 F       1  UNL1       -0.2042
     24 C          60.7380   85.9346    8.1040 C.ar    1  UNL1        0.0328
     25 C          59.7184   86.8139    7.4426 C.ar    1  UNL1        0.0398
     26 C          64.4043   95.9137   -0.8719 C.3     1  UNL1        0.0281
     27 C          64.7439   95.7900   -2.3277 C.ar    1  UNL1       -0.0221
     28 C          65.5572   96.8554   -3.0011 C.ar    1  UNL1       -0.0043
     29 C          65.8969   96.7318   -4.4569 C.ar    1  UNL1       -0.0003
     30 C          65.4233   95.5428   -5.2392 C.ar    1  UNL1       -0.0000
     31 C          64.6100   94.4774   -4.5657 C.ar    1  UNL1       -0.0003
     32 C          64.2704   94.6010   -3.1100 C.ar    1  UNL1       -0.0043
     33 C          58.7405   94.7973   -1.1886 C.3     1  UNL1        0.2138
     34 N          57.3082   94.4359   -1.4491 N.ar    1  UNL1       -0.2206
     35 C          56.7673   93.0482   -1.6273 C.ar    1  UNL1        0.1977
     36 N          55.2901   93.1535   -1.8654 N.ar    1  UNL1       -0.2007
     37 C          54.9180   94.6063   -1.8344 C.ar    1  UNL1        0.2210
     38 N          56.1652   95.3989   -1.5771 N.ar    1  UNL1       -0.1447
@<TRIPOS>BOND
     1     8     9    2
     2     9    10   am
     3    10    12    1
     4    12    13   ar
     5    13    14   ar
     6    14    15   ar
     7    15    18    1
     8    18    19    1
     9    19    20   ar
    10    20    21   ar
    11    21    22   ar
    12    22    23    1
    13    22    24   ar
    14    24    25   ar
    15    15    16   ar
    16    16    17   ar
    17     1     9    1
    18     1     2    1
    19     2     3    1
    20     3    26    1
    21    26    27    1
    22    27    28   ar
    23    28    29   ar
    24    29    30   ar
    25    30    31   ar
    26    31    32   ar
    27     3     4    1
    28     4     5    1
    29     5     6   am
    30     6     7    2
    31     6    33    1
    32    33    34    1
    33    34    35   ar
    34    35    36   ar
    35    36    37   ar
    36    37    38   ar
    37    17    12   ar
    38     5     1    1
    39    38    34   ar
    40    25    19   ar
    41    32    27   ar
    42    10    11    1
@<TRIPOS>MOLECULE
*****
 38 42 0 0 0
SMALL
GASTEIGER

@<TRIPOS>ATOM
      1 C          62.7620   85.4247   11.3597 C.3     1  UNL1        0.1522
      2 C          62.8053   83.9255   11.3883 C.3     1  UNL1        0.0313
      3 C          63.4752   83.5054   12.6630 C.3     1  UNL1        0.0264
      4 C          63.8459   84.7449   13.4221 C.3     1  UNL1        0.0942
      5 N          63.4052   85.9310   12.6167 N.am    1  UNL1       -0.2713
      6 C          63.5773   87.3708   13.0006 C.2     1  UNL1        0.2509
      7 O          63.0832   88.4545   12.0888 O.2     1  UNL1       -0.2727
      8 O          62.8927   86.3954    8.9533 O.2     1  UNL1       -0.2730
      9 C          62.1780   86.2691   10.2661 C.2     1  UNL1        0.2442
     10 N          60.8795   86.9872   10.4852 N.am    1  UNL1       -0.2826
     11 H          60.4104   86.9043   11.3468 H       1  UNL1        0.1549
     12 C          60.2955   87.8316    9.3916 C.ar    1  UNL1        0.0505
     13 C          59.5242   87.1880    8.2777 C.ar    1  UNL1        0.0178
     14 C          58.9403   88.0324    7.1842 C.ar    1  UNL1        0.0388
     15 C          59.1277   89.5205    7.2045 C.ar    1  UNL1        0.1454
     16 C          59.8990   90.1642    8.3184 C.ar    1  UNL1        0.0388
     17 C          60.4829   89.3197    9.4119 C.ar    1  UNL1        0.0178
     18 O          58.5437   90.3650    6.1108 O.3     1  UNL1       -0.4535
     19 C          59.4468   91.0450    5.1250 C.ar    1  UNL1        0.1454
     20 C          60.8780   90.6143    4.9978 C.ar    1  UNL1        0.0398
     21 C          61.7811   91.2944    4.0119 C.ar    1  UNL1        0.0328
     22 C          61.2530   92.4051    3.1532 C.ar    1  UNL1        0.1403
     23 F          62.1561   93.0851    2.1674 F       1  UNL1       -0.2042
     24 C          59.8218   92.8359    3.2805 C.ar    1  UNL1        0.0328
     25 C          58.9187   92.1558    4.2663 C.ar    1  UNL1        0.0398
     26 C          63.7297   82.0937   13.1015 C.3     1  UNL1        0.0281
     27 C          63.3190   80.9497   12.2225 C.ar    1  UNL1       -0.0221
     28 C          62.7996   79.6826   12.8346 C.ar    1  UNL1       -0.0043
     29 C          62.3889   78.5386   11.9556 C.ar    1  UNL1       -0.0003
     30 C          62.4976   78.6617   10.4647 C.ar    1  UNL1       -0.0000
     31 C          63.0171   79.9289    9.8526 C.ar    1  UNL1       -0.0003
     32 C          63.4277   81.0728   10.7316 C.ar    1  UNL1       -0.0043
     33 C          64.2435   87.7269   14.2966 C.3     1  UNL1        0.2138
     34 N          63.6411   87.2829   15.5965 N.ar    1  UNL1       -0.2206
     35 C          63.6376   85.8826   16.1340 C.ar    1  UNL1        0.1977
     36 N          62.9307   85.8956   17.4569 N.ar    1  UNL1       -0.2007
     37 C          62.4973   87.3040   17.7370 C.ar    1  UNL1        0.2210
     38 N          62.9363   88.1614   16.5872 N.ar    1  UNL1       -0.1447
@<TRIPOS>BOND
     1     8     9    2
     2     9    10   am
     3    10    12    1
     4    12    13   ar
     5    13    14   ar
     6    14    15   ar
     7    15    18    1
     8    18    19    1
     9    19    20   ar
    10    20    21   ar
    11    21    22   ar
    12    22    23    1
    13    22    24   ar
    14    24    25   ar
    15    15    16   ar
    16    16    17   ar
    17     1     9    1
    18     1     2    1
    19     2     3    1
    20     3    26    1
    21    26    27    1
    22    27    28   ar
    23    28    29   ar
    24    29    30   ar
    25    30    31   ar
    26    31    32   ar
    27     3     4    1
    28     4     5    1
    29     5     6   am
    30     6     7    2
    31     6    33    1
    32    33    34    1
    33    34    35   ar
    34    35    36   ar
    35    36    37   ar
    36    37    38   ar
    37    17    12   ar
    38     5     1    1
    39    38    34   ar
    40    25    19   ar
    41    32    27   ar
    42    10    11    1
@<TRIPOS>MOLECULE
*****
 38 42 0 0 0
SMALL
GASTEIGER

@<TRIPOS>ATOM
      1 C          62.6364   94.1188   -4.3293 C.3     1  UNL1        0.1522
      2 C          64.0512   93.8046   -4.7161 C.3     1  UNL1        0.0313
      3 C          64.1255   93.7708   -6.2140 C.3     1  UNL1        0.0264
      4 C          62.7566   94.0641   -6.7527 C.3     1  UNL1        0.0942
      5 N          61.8363   94.2792   -5.5879 N.am    1  UNL1       -0.2713
      6 C          60.3729   94.5986   -5.6676 C.2     1  UNL1        0.2509
      7 O          59.5769   94.7876   -4.4104 O.2     1  UNL1       -0.2727
      8 O          61.9895   95.6050   -2.2988 O.2     1  UNL1       -0.2730
      9 C          62.1135   94.2497   -2.9294 C.2     1  UNL1        0.2442
     10 N          61.7147   93.0253   -2.1602 N.am    1  UNL1       -0.2826
     11 H          61.7961   92.1357   -2.5742 H       1  UNL1        0.1549
     12 C          61.1918   93.1561   -0.7604 C.ar    1  UNL1        0.0505
     13 C          59.7133   93.2125   -0.5142 C.ar    1  UNL1        0.0178
     14 C          59.1905   93.3433    0.8856 C.ar    1  UNL1        0.0388
     15 C          60.1463   93.4178    2.0393 C.ar    1  UNL1        0.1454
     16 C          61.6248   93.3615    1.7931 C.ar    1  UNL1        0.0388
     17 C          62.1476   93.2306    0.3933 C.ar    1  UNL1        0.0178
     18 O          59.6234   93.5487    3.4391 O.3     1  UNL1       -0.4535
     19 C          59.4453   92.3267    4.2905 C.ar    1  UNL1        0.1454
     20 C          58.0717   91.9089    4.7250 C.ar    1  UNL1        0.0398
     21 C          57.8937   90.6868    5.5764 C.ar    1  UNL1        0.0328
     22 C          59.0892   89.8825    5.9934 C.ar    1  UNL1        0.1403
     23 F          58.9112   88.6605    6.8447 F       1  UNL1       -0.2042
     24 C          60.4628   90.3003    5.5589 C.ar    1  UNL1        0.0328
     25 C          60.6409   91.5223    4.7075 C.ar    1  UNL1        0.0398
     26 C          65.3531   93.4925   -7.0298 C.3     1  UNL1        0.0281
     27 C          66.4864   94.4751   -7.0385 C.ar    1  UNL1       -0.0221
     28 C          66.2720   95.8717   -6.5352 C.ar    1  UNL1       -0.0043
     29 C          67.4054   96.8543   -6.5439 C.ar    1  UNL1       -0.0003
     30 C          68.7530   96.4402   -7.0560 C.ar    1  UNL1       -0.0000
     31 C          68.9674   95.0434   -7.5593 C.ar    1  UNL1       -0.0003
     32 C          67.8341   94.0609   -7.5506 C.ar    1  UNL1       -0.0043
     33 C          59.7055   94.7291   -7.0046 C.3     1  UNL1        0.2138
     34 N          58.2358   94.4604   -7.1387 N.ar    1  UNL1       -0.2206
     35 C          57.1480   95.4932   -7.1481 C.ar    1  UNL1        0.1977
     36 N          55.8359   94.7829   -7.3022 N.ar    1  UNL1       -0.2007
     37 C          56.1128   93.3112   -7.3880 C.ar    1  UNL1        0.2210
     38 N          57.5960   93.1119   -7.2870 N.ar    1  UNL1       -0.1447
@<TRIPOS>BOND
     1     8     9    2
     2     9    10   am
     3    10    12    1
     4    12    13   ar
     5    13    14   ar
     6    14    15   ar
     7    15    18    1
     8    18    19    1
     9    19    20   ar
    10    20    21   ar
    11    21    22   ar
    12    22    23    1
    13    22    24   ar
    14    24    25   ar
    15    15    16   ar
    16    16    17   ar
    17     1     9    1
    18     1     2    1
    19     2     3    1
    20     3    26    1
    21    26    27    1
    22    27    28   ar
    23    28    29   ar
    24    29    30   ar
    25    30    31   ar
    26    31    32   ar
    27     3     4    1
    28     4     5    1
    29     5     6   am
    30     6     7    2
    31     6    33    1
    32    33    34    1
    33    34    35   ar
    34    35    36   ar
    35    36    37   ar
    36    37    38   ar
    37    17    12   ar
    38     5     1    1
    39    38    34   ar
    40    25    19   ar
    41    32    27   ar
    42    10    11    1
@<TRIPOS>MOLECULE
*****
 38 42 0 0 0
SMALL
GASTEIGER

@<TRIPOS>ATOM
      1 C          61.4311   94.7188    0.4534 C.3     1  UNL1        0.1522
      2 C          62.8544   95.1618    0.2858 C.3     1  UNL1        0.0313
      3 C          63.0103   95.7046   -1.1039 C.3     1  UNL1        0.0264
      4 C          61.6833   95.5970   -1.7951 C.3     1  UNL1        0.0942
      5 N          60.7074   94.9878   -0.8326 N.am    1  UNL1       -0.2713
      6 C          59.2616   94.6983   -1.1077 C.2     1  UNL1        0.2509
      7 O          58.4037   94.0835   -0.0418 O.2     1  UNL1       -0.2727
      8 O          59.9977   94.9529    2.6076 O.2     1  UNL1       -0.2730
      9 C          60.8361   94.1132    1.6901 C.2     1  UNL1        0.2442
     10 N          61.0796   92.6679    2.0091 N.am    1  UNL1       -0.2826
     11 H          61.6300   92.1168    1.4069 H       1  UNL1        0.1549
     12 C          60.4846   92.0622    3.2458 C.ar    1  UNL1        0.0505
     13 C          61.3362   91.2291    4.1572 C.ar    1  UNL1        0.0178
     14 C          60.7412   90.6235    5.3938 C.ar    1  UNL1        0.0388
     15 C          59.2946   90.8510    5.7189 C.ar    1  UNL1        0.1454
     16 C          58.4431   91.6842    4.8076 C.ar    1  UNL1        0.0388
     17 C          59.0381   92.2898    3.5710 C.ar    1  UNL1        0.0178
     18 O          58.6996   90.2454    6.9556 O.3     1  UNL1       -0.4535
     19 C          59.3988   89.1126    7.6469 C.ar    1  UNL1        0.1454
     20 C          59.1507   87.6994    7.2095 C.ar    1  UNL1        0.0398
     21 C          59.8499   86.5666    7.9009 C.ar    1  UNL1        0.0328
     22 C          60.7971   86.8470    9.0297 C.ar    1  UNL1        0.1403
     23 F          61.4963   85.7143    9.7210 F       1  UNL1       -0.2042
     24 C          61.0452   88.2602    9.4671 C.ar    1  UNL1        0.0328
     25 C          60.3461   89.3930    8.7757 C.ar    1  UNL1        0.0398
     26 C          64.2716   96.2578   -1.6981 C.3     1  UNL1        0.0281
     27 C          64.6827   95.8636   -3.0858 C.ar    1  UNL1       -0.0221
     28 C          64.4016   94.4777   -3.5860 C.ar    1  UNL1       -0.0043
     29 C          64.8127   94.0835   -4.9736 C.ar    1  UNL1       -0.0003
     30 C          65.5049   95.0751   -5.8610 C.ar    1  UNL1       -0.0000
     31 C          65.7860   96.4611   -5.3607 C.ar    1  UNL1       -0.0003
     32 C          65.3749   96.8553   -3.9731 C.ar    1  UNL1       -0.0043
     33 C          58.6735   95.0236   -2.4488 C.3     1  UNL1        0.2138
     34 N          57.9463   93.9662   -3.2254 N.ar    1  UNL1       -0.2206
     35 C          56.8070   94.1955   -4.1737 C.ar    1  UNL1        0.1977
     36 N          56.3873   92.8648   -4.7244 N.ar    1  UNL1       -0.2007
     37 C          57.2672   91.8132   -4.1164 C.ar    1  UNL1        0.2210
     38 N          58.2308   92.4939   -3.1899 N.ar    1  UNL1       -0.1447
@<TRIPOS>BOND
     1     8     9    2
     2     9    10   am
     3    10    12    1
     4    12    13   ar
     5    13    14   ar
     6    14    15   ar
     7    15    18    1
     8    18    19    1
     9    19    20   ar
    10    20    21   ar
    11    21    22   ar
    12    22    23    1
    13    22    24   ar
    14    24    25   ar
    15    15    16   ar
    16    16    17   ar
    17     1     9    1
    18     1     2    1
    19     2     3    1
    20     3    26    1
    21    26    27    1
    22    27    28   ar
    23    28    29   ar
    24    29    30   ar
    25    30    31   ar
    26    31    32   ar
    27     3     4    1
    28     4     5    1
    29     5     6   am
    30     6     7    2
    31     6    33    1
    32    33    34    1
    33    34    35   ar
    34    35    36   ar
    35    36    37   ar
    36    37    38   ar
    37    17    12   ar
    38     5     1    1
    39    38    34   ar
    40    25    19   ar
    41    32    27   ar
    42    10    11    1
@<TRIPOS>MOLECULE
*****
 38 42 0 0 0
SMALL
GASTEIGER

@<TRIPOS>ATOM
      1 C          62.9595   85.5450   11.3596 C.3     1  UNL1        0.1522
      2 C          63.0951   85.9642   12.7934 C.3     1  UNL1        0.0313
      3 C          63.7999   84.8656   13.5328 C.3     1  UNL1        0.0264
      4 C          64.0998   83.7676   12.5558 C.3     1  UNL1        0.0942
      5 N          63.5805   84.1875   11.2127 N.am    1  UNL1       -0.2713
      6 C          63.6668   83.3900    9.9453 C.2     1  UNL1        0.2509
      7 O          63.0997   83.9425    8.6713 O.2     1  UNL1       -0.2727
      8 O          63.0564   86.5938    8.9845 O.2     1  UNL1       -0.2730
      9 C          62.3159   86.3433   10.2647 C.2     1  UNL1        0.2442
     10 N          60.9319   86.8911   10.4502 N.am    1  UNL1       -0.2826
     11 H          60.4459   86.7267   11.2904 H       1  UNL1        0.1549
     12 C          60.2883   87.6894    9.3553 C.ar    1  UNL1        0.0505
     13 C          59.5798   86.9894    8.2338 C.ar    1  UNL1        0.0178
     14 C          58.9363   87.7877    7.1390 C.ar    1  UNL1        0.0388
     15 C          59.0012   89.2860    7.1659 C.ar    1  UNL1        0.1454
     16 C          59.7097   89.9861    8.2874 C.ar    1  UNL1        0.0388
     17 C          60.3532   89.1878    9.3822 C.ar    1  UNL1        0.0178
     18 O          58.3576   90.0843    6.0710 O.3     1  UNL1       -0.4535
     19 C          59.2056   90.8926    5.1343 C.ar    1  UNL1        0.1454
     20 C          60.6819   90.6398    5.0516 C.ar    1  UNL1        0.0398
     21 C          61.5299   91.4482    4.1148 C.ar    1  UNL1        0.0328
     22 C          60.9017   92.5093    3.2608 C.ar    1  UNL1        0.1403
     23 F          61.7497   93.3175    2.3241 F       1  UNL1       -0.2042
     24 C          59.4254   92.7620    3.3435 C.ar    1  UNL1        0.0328
     25 C          58.5774   91.9538    4.2802 C.ar    1  UNL1        0.0398
     26 C          64.1442   84.8652   14.9927 C.3     1  UNL1        0.0281
     27 C          63.7375   86.0199   15.8596 C.ar    1  UNL1       -0.0221
     28 C          64.0106   87.4256   15.4129 C.ar    1  UNL1       -0.0043
     29 C          63.6039   88.5802   16.2798 C.ar    1  UNL1       -0.0003
     30 C          62.9242   88.3292   17.5931 C.ar    1  UNL1       -0.0000
     31 C          62.6512   86.9234   18.0397 C.ar    1  UNL1       -0.0003
     32 C          63.0579   85.7688   17.1729 C.ar    1  UNL1       -0.0043
     33 C          64.3204   82.0398    9.9518 C.3     1  UNL1        0.2138
     34 N          63.5707   80.8460   10.4643 N.ar    1  UNL1       -0.2206
     35 C          63.0641   80.6570   11.8635 C.ar    1  UNL1        0.1977
     36 N          62.3762   79.3258   11.9316 N.ar    1  UNL1       -0.2007
     37 C          62.4576   78.6921   10.5745 C.ar    1  UNL1        0.2210
     38 N          63.1958   79.6316    9.6677 N.ar    1  UNL1       -0.1447
@<TRIPOS>BOND
     1     8     9    2
     2     9    10   am
     3    10    12    1
     4    12    13   ar
     5    13    14   ar
     6    14    15   ar
     7    15    18    1
     8    18    19    1
     9    19    20   ar
    10    20    21   ar
    11    21    22   ar
    12    22    23    1
    13    22    24   ar
    14    24    25   ar
    15    15    16   ar
    16    16    17   ar
    17     1     9    1
    18     1     2    1
    19     2     3    1
    20     3    26    1
    21    26    27    1
    22    27    28   ar
    23    28    29   ar
    24    29    30   ar
    25    30    31   ar
    26    31    32   ar
    27     3     4    1
    28     4     5    1
    29     5     6   am
    30     6     7    2
    31     6    33    1
    32    33    34    1
    33    34    35   ar
    34    35    36   ar
    35    36    37   ar
    36    37    38   ar
    37    17    12   ar
    38     5     1    1
    39    38    34   ar
    40    25    19   ar
    41    32    27   ar
    42    10    11    1
@<TRIPOS>MOLECULE
*****
 38 42 0 0 0
SMALL
GASTEIGER

@<TRIPOS>ATOM
      1 C          72.1563   74.0533   13.8127 C.3     1  UNL1        0.1522
      2 C          71.6763   72.8070   13.1297 C.3     1  UNL1        0.0313
      3 C          71.8545   71.6599   14.0798 C.3     1  UNL1        0.0264
      4 C          72.4446   72.1973   15.3499 C.3     1  UNL1        0.0942
      5 N          72.6310   73.6765   15.1848 N.am    1  UNL1       -0.2713
      6 C          73.1935   74.6143   16.2115 C.2     1  UNL1        0.2509
      7 O          73.3204   76.0765   15.9022 O.2     1  UNL1       -0.2727
      8 O          70.8703   76.0770   12.8122 O.2     1  UNL1       -0.2730
      9 C          72.1606   75.4340   13.2265 C.2     1  UNL1        0.2442
     10 N          73.4553   76.1717   13.0545 N.am    1  UNL1       -0.2826
     11 H          74.3022   75.7498   13.3264 H       1  UNL1        0.1549
     12 C          73.4596   77.5525   12.4682 C.ar    1  UNL1        0.0505
     13 C          73.5819   77.7370   10.9847 C.ar    1  UNL1        0.0178
     14 C          73.5862   79.1176   10.3985 C.ar    1  UNL1        0.0388
     15 C          73.4683   80.3138   11.2959 C.ar    1  UNL1        0.1454
     16 C          73.3461   80.1293   12.7794 C.ar    1  UNL1        0.0388
     17 C          73.3417   78.7487   13.3656 C.ar    1  UNL1        0.0178
     18 O          73.4727   81.6946   10.7096 O.3     1  UNL1       -0.4535
     19 C          73.0241   81.9099    9.2946 C.ar    1  UNL1        0.1454
     20 C          73.5797   81.0562    8.1935 C.ar    1  UNL1        0.0398
     21 C          73.1310   81.2716    6.7784 C.ar    1  UNL1        0.0328
     22 C          72.1269   82.3408    6.4644 C.ar    1  UNL1        0.1403
     23 F          71.6783   82.5562    5.0494 F       1  UNL1       -0.2042
     24 C          71.5714   83.1945    7.5656 C.ar    1  UNL1        0.0328
     25 C          72.0199   82.9792    8.9806 C.ar    1  UNL1        0.0398
     26 C          71.5042   70.2270   13.8075 C.3     1  UNL1        0.0281
     27 C          70.2535   69.8915   13.0504 C.ar    1  UNL1       -0.0221
     28 C          69.3619   70.9896   12.5509 C.ar    1  UNL1       -0.0043
     29 C          68.1112   70.6541   11.7938 C.ar    1  UNL1       -0.0003
     30 C          67.7521   69.2207   11.5363 C.ar    1  UNL1       -0.0000
     31 C          68.6437   68.1226   12.0360 C.ar    1  UNL1       -0.0003
     32 C          69.8943   68.4581   12.7930 C.ar    1  UNL1       -0.0043
     33 C          73.6291   74.0898   17.5477 C.3     1  UNL1        0.2138
     34 N          72.6099   73.5710   18.5183 N.ar    1  UNL1       -0.2206
     35 C          72.8019   73.4122   19.9975 C.ar    1  UNL1        0.1977
     36 N          71.5304   72.8629   20.5735 N.ar    1  UNL1       -0.2007
     37 C          70.5528   72.6823   19.4504 C.ar    1  UNL1        0.2210
     38 N          71.2199   73.1199   18.1802 N.ar    1  UNL1       -0.1447
@<TRIPOS>BOND
     1     8     9    2
     2     9    10   am
     3    10    12    1
     4    12    13   ar
     5    13    14   ar
     6    14    15   ar
     7    15    18    1
     8    18    19    1
     9    19    20   ar
    10    20    21   ar
    11    21    22   ar
    12    22    23    1
    13    22    24   ar
    14    24    25   ar
    15    15    16   ar
    16    16    17   ar
    17     1     9    1
    18     1     2    1
    19     2     3    1
    20     3    26    1
    21    26    27    1
    22    27    28   ar
    23    28    29   ar
    24    29    30   ar
    25    30    31   ar
    26    31    32   ar
    27     3     4    1
    28     4     5    1
    29     5     6   am
    30     6     7    2
    31     6    33    1
    32    33    34    1
    33    34    35   ar
    34    35    36   ar
    35    36    37   ar
    36    37    38   ar
    37    17    12   ar
    38     5     1    1
    39    38    34   ar
    40    25    19   ar
    41    32    27   ar
    42    10    11    1
@<TRIPOS>MOLECULE
*****
 38 42 0 0 0
SMALL
GASTEIGER

@<TRIPOS>ATOM
      1 C          63.3047   86.3457   13.6223 C.3     1  UNL1        0.1522
      2 C          63.3379   85.3550   14.7481 C.3     1  UNL1        0.0313
      3 C          62.5864   84.1322   14.3117 C.3     1  UNL1        0.0264
      4 C          62.0888   84.3674   12.9163 C.3     1  UNL1        0.0942
      5 N          62.5328   85.7353   12.4902 N.am    1  UNL1       -0.2713
      6 C          62.2539   86.3798   11.1648 C.2     1  UNL1        0.2509
      7 O          62.7652   87.7609   10.8800 O.2     1  UNL1       -0.2727
      8 O          65.0430   88.0177   14.5881 O.2     1  UNL1       -0.2730
      9 C          63.9333   87.7077   13.6277 C.2     1  UNL1        0.2442
     10 N          63.4520   88.7596   12.6728 N.am    1  UNL1       -0.2826
     11 H          62.7236   88.5560   12.0425 H       1  UNL1        0.1549
     12 C          64.0805   90.1216   12.6782 C.ar    1  UNL1        0.0505
     13 C          63.8993   91.0359   11.5030 C.ar    1  UNL1        0.0178
     14 C          64.5278   92.3978   11.5085 C.ar    1  UNL1        0.0388
     15 C          65.3375   92.8454   12.6892 C.ar    1  UNL1        0.1454
     16 C          65.5187   91.9312   13.8644 C.ar    1  UNL1        0.0388
     17 C          64.8902   90.5692   13.8589 C.ar    1  UNL1        0.0178
     18 O          65.9660   94.2075   12.6946 O.3     1  UNL1       -0.4535
     19 C          66.4634   94.8091   11.4137 C.ar    1  UNL1        0.1454
     20 C          67.2256   93.9656   10.4352 C.ar    1  UNL1        0.0398
     21 C          67.7229   94.5672    9.1543 C.ar    1  UNL1        0.0328
     22 C          67.4581   96.0123    8.8519 C.ar    1  UNL1        0.1403
     23 F          67.9554   96.6139    7.5711 F       1  UNL1       -0.2042
     24 C          66.6959   96.8559    9.8305 C.ar    1  UNL1        0.0328
     25 C          66.1985   96.2543   11.1114 C.ar    1  UNL1        0.0398
     26 C          62.3704   82.8922   15.1276 C.3     1  UNL1        0.0281
     27 C          62.1217   81.5795   14.4455 C.ar    1  UNL1       -0.0221
     28 C          63.2374   80.8888   13.7188 C.ar    1  UNL1       -0.0043
     29 C          62.9887   79.5762   13.0367 C.ar    1  UNL1       -0.0003
     30 C          61.6244   78.9544   13.0814 C.ar    1  UNL1       -0.0000
     31 C          60.5087   79.6452   13.8082 C.ar    1  UNL1       -0.0003
     32 C          60.7574   80.9577   14.4903 C.ar    1  UNL1       -0.0043
     33 C          61.4636   85.6433   10.1241 C.3     1  UNL1        0.2138
     34 N          60.6128   86.4039    9.1507 N.ar    1  UNL1       -0.2206
     35 C          60.2616   85.9686    7.7589 C.ar    1  UNL1        0.1977
     36 N          59.3955   87.0290    7.1463 N.ar    1  UNL1       -0.2007
     37 C          59.2115   88.1197    8.1595 C.ar    1  UNL1        0.2210
     38 N          59.9638   87.7333    9.3983 N.ar    1  UNL1       -0.1447
@<TRIPOS>BOND
     1     8     9    2
     2     9    10   am
     3    10    12    1
     4    12    13   ar
     5    13    14   ar
     6    14    15   ar
     7    15    18    1
     8    18    19    1
     9    19    20   ar
    10    20    21   ar
    11    21    22   ar
    12    22    23    1
    13    22    24   ar
    14    24    25   ar
    15    15    16   ar
    16    16    17   ar
    17     1     9    1
    18     1     2    1
    19     2     3    1
    20     3    26    1
    21    26    27    1
    22    27    28   ar
    23    28    29   ar
    24    29    30   ar
    25    30    31   ar
    26    31    32   ar
    27     3     4    1
    28     4     5    1
    29     5     6   am
    30     6     7    2
    31     6    33    1
    32    33    34    1
    33    34    35   ar
    34    35    36   ar
    35    36    37   ar
    36    37    38   ar
    37    17    12   ar
    38     5     1    1
    39    38    34   ar
    40    25    19   ar
    41    32    27   ar
    42    10    11    1
