@<TRIPOS>MOLECULE
*****
 35 39 0 0 0
SMALL
GASTEIGER

@<TRIPOS>ATOM
      1 C          64.2656   86.4542   15.3002 C.3     1  UNL1        0.0730
      2 N          64.1335   85.3173   14.3307 N.3     1  UNL1       -0.2726
      3 C          64.6989   83.9390   14.5059 C.3     1  UNL1        0.0721
      4 C          64.3276   83.1289   13.2993 C.3     1  UNL1        0.0190
      5 C          63.5328   84.0065   12.3784 C.3     1  UNL1        0.0201
      6 C          63.3183   82.9676   11.3180 C.3     1  UNL1        0.0061
      7 C          62.7530   84.3458   11.1428 C.3     1  UNL1        0.0237
      8 C          63.4128   85.3590   13.0158 C.3     1  UNL1        0.0724
      9 C          61.9763   85.3375   10.3282 C.ar    1  UNL1       -0.0225
     10 C          62.0146   85.2715    8.8302 C.ar    1  UNL1       -0.0043
     11 C          61.2380   86.2631    8.0157 C.ar    1  UNL1        0.0035
     12 C          60.4231   87.3208    8.6992 C.ar    1  UNL1        0.0714
     13 C          60.3848   87.3868   10.1973 C.ar    1  UNL1        0.0035
     14 C          61.1614   86.3951   11.0118 C.ar    1  UNL1       -0.0043
     15 C          59.6464   88.3124    7.8847 C.3     1  UNL1        0.4186
     16 F          58.8697   89.3041    7.0702 F       1  UNL1       -0.1659
     17 F          60.3379   89.4378    8.5956 F       1  UNL1       -0.1659
     18 F          58.9550   87.1870    7.1738 F       1  UNL1       -0.1659
     19 C          64.2686   87.8688   14.8013 C.3     1  UNL1        0.0294
     20 C          63.7823   88.9776   15.6869 C.3     1  UNL1        0.0666
     21 S          63.3867   90.2955   15.0899 S.3     1  UNL1       -0.0756
     22 C          63.8478   91.1971   11.9876 C.3     1  UNL1        0.1340
     23 N          64.6525   91.6550   13.1678 N.ar    1  UNL1       -0.2884
     24 C          64.4406   91.2406   14.5937 C.ar    1  UNL1        0.1932
     25 N          65.4675   91.9372   15.4365 N.ar    1  UNL1       -0.1221
     26 N          66.3142   92.7821   14.5313 N.ar    1  UNL1       -0.1282
     27 C          65.8105   92.6078   13.1292 C.ar    1  UNL1        0.1683
     28 C          66.3671   93.2699   11.9037 C.ar    1  UNL1        0.0534
     29 C          67.1630   92.4703   10.9151 C.ar    1  UNL1        0.0094
     30 C          67.7195   93.1324    9.6896 C.ar    1  UNL1        0.0609
     31 C          67.4802   94.5942    9.4527 C.ar    1  UNL1        0.2610
     32 O          68.0367   95.2563    8.2272 O.2     1  UNL1       -0.2670
     33 N          66.6843   95.3938   10.4413 N.ar    1  UNL1       -0.2921
     34 C          66.4450   96.8555   10.2043 C.3     1  UNL1        0.1336
     35 C          66.1277   94.7316   11.6668 C.ar    1  UNL1        0.0814
@<TRIPOS>BOND
     1    22    23    1
     2    23    24   ar
     3    24    21    1
     4    21    20    1
     5    20    19    1
     6    19     1    1
     7     1     2    1
     8     2     3    1
     9     3     4    1
    10     5     4    1
    11     5     6    1
    12     6     7    1
    13     7     9    1
    14     9    10   ar
    15    10    11   ar
    16    11    12   ar
    17    12    15    1
    18    15    16    1
    19    15    17    1
    20    15    18    1
    21    12    13   ar
    22    13    14   ar
    23     5     8    1
    24    24    25   ar
    25    25    26   ar
    26    26    27   ar
    27    27    28    1
    28    28    29   ar
    29    29    30   ar
    30    30    31   ar
    31    31    32    2
    32    31    33   ar
    33    33    34    1
    34    33    35   ar
    35    27    23   ar
    36    35    28   ar
    37     8     2    1
    38     7     5    1
    39    14     9   ar
@<TRIPOS>MOLECULE
*****
 35 39 0 0 0
SMALL
GASTEIGER

@<TRIPOS>ATOM
      1 C          61.9576   86.3681    8.8556 C.3     1  UNL1        0.0730
      2 N          62.6918   85.2283    9.4973 N.3     1  UNL1       -0.2726
      3 C          63.2524   84.0306    8.7894 C.3     1  UNL1        0.0721
      4 C          63.9012   83.1481    9.8142 C.3     1  UNL1        0.0190
      5 C          63.7416   83.8005   11.1555 C.3     1  UNL1        0.0201
      6 C          64.4550   82.7351   11.9339 C.3     1  UNL1        0.0061
      7 C          63.8944   83.9328   12.6418 C.3     1  UNL1        0.0237
      8 C          62.9941   85.0861   10.9596 C.3     1  UNL1        0.0724
      9 C          63.6589   84.7007   13.9086 C.ar    1  UNL1       -0.0225
     10 C          62.6428   84.2176   14.9006 C.ar    1  UNL1       -0.0043
     11 C          62.4073   84.9855   16.1674 C.ar    1  UNL1        0.0035
     12 C          63.1880   86.2365   16.4422 C.ar    1  UNL1        0.0714
     13 C          64.2042   86.7196   15.4502 C.ar    1  UNL1        0.0035
     14 C          64.4396   85.9517   14.1834 C.ar    1  UNL1       -0.0043
     15 C          62.9525   87.0044   17.7091 C.3     1  UNL1        0.4186
     16 F          62.7170   87.7723   18.9760 F       1  UNL1       -0.1659
     17 F          63.4938   88.2430   17.0589 F       1  UNL1       -0.1659
     18 F          62.4112   85.7658   18.3593 F       1  UNL1       -0.1659
     19 C          60.5075   86.5951    9.1646 C.3     1  UNL1        0.0294
     20 C          60.0011   87.9859    9.4079 C.3     1  UNL1        0.0666
     21 S          60.9666   89.1302    9.5001 S.3     1  UNL1       -0.0756
     22 C          63.1079   91.5341   10.0347 C.3     1  UNL1        0.1340
     23 N          62.7928   90.4087   10.9750 N.ar    1  UNL1       -0.2884
     24 C          61.8086   89.3037   10.7293 C.ar    1  UNL1        0.1932
     25 N          61.8142   88.4027   11.9286 N.ar    1  UNL1       -0.1221
     26 N          62.8019   88.9509   12.9155 N.ar    1  UNL1       -0.1282
     27 C          63.4068   90.1906   12.3262 C.ar    1  UNL1        0.1683
     28 C          64.4435   91.0597   12.9742 C.ar    1  UNL1        0.0534
     29 C          65.0049   90.6855   14.3139 C.ar    1  UNL1        0.0094
     30 C          66.0417   91.5545   14.9620 C.ar    1  UNL1        0.0609
     31 C          66.5169   92.7978   14.2702 C.ar    1  UNL1        0.2610
     32 O          67.5536   93.6669   14.9183 O.2     1  UNL1       -0.2670
     33 N          65.9555   93.1720   12.9305 N.ar    1  UNL1       -0.2921
     34 C          66.4308   94.4153   12.2389 C.3     1  UNL1        0.1336
     35 C          64.9188   92.3029   12.2825 C.ar    1  UNL1        0.0814
@<TRIPOS>BOND
     1    22    23    1
     2    23    24   ar
     3    24    21    1
     4    21    20    1
     5    20    19    1
     6    19     1    1
     7     1     2    1
     8     2     3    1
     9     3     4    1
    10     5     4    1
    11     5     6    1
    12     6     7    1
    13     7     9    1
    14     9    10   ar
    15    10    11   ar
    16    11    12   ar
    17    12    15    1
    18    15    16    1
    19    15    17    1
    20    15    18    1
    21    12    13   ar
    22    13    14   ar
    23     5     8    1
    24    24    25   ar
    25    25    26   ar
    26    26    27   ar
    27    27    28    1
    28    28    29   ar
    29    29    30   ar
    30    30    31   ar
    31    31    32    2
    32    31    33   ar
    33    33    34    1
    34    33    35   ar
    35    27    23   ar
    36    35    28   ar
    37     8     2    1
    38     7     5    1
    39    14     9   ar
@<TRIPOS>MOLECULE
*****
 35 39 0 0 0
SMALL
GASTEIGER

@<TRIPOS>ATOM
      1 C          64.3608   87.8522   15.0510 C.3     1  UNL1        0.0730
      2 N          64.1055   86.5418   14.3672 N.3     1  UNL1       -0.2726
      3 C          64.5931   85.1990   14.8245 C.3     1  UNL1        0.0721
      4 C          64.1067   84.1714   13.8460 C.3     1  UNL1        0.0190
      5 C          63.3184   84.8791   12.7840 C.3     1  UNL1        0.0201
      6 C          62.9820   83.6499   11.9930 C.3     1  UNL1        0.0061
      7 C          62.4944   84.9927   11.5357 C.3     1  UNL1        0.0237
      8 C          63.3177   86.3441   13.1061 C.3     1  UNL1        0.0724
      9 C          61.7372   85.8335   10.5511 C.ar    1  UNL1       -0.0225
     10 C          60.9090   86.9882   11.0315 C.ar    1  UNL1       -0.0043
     11 C          60.1517   87.8290   10.0468 C.ar    1  UNL1        0.0035
     12 C          60.2227   87.5151    8.5818 C.ar    1  UNL1        0.0714
     13 C          61.0509   86.3604    8.1013 C.ar    1  UNL1        0.0035
     14 C          61.8081   85.5196    9.0860 C.ar    1  UNL1       -0.0043
     15 C          59.4654   88.3560    7.5971 C.3     1  UNL1        0.4186
     16 F          58.7082   89.1969    6.6124 F       1  UNL1       -0.1659
     17 F          58.8724   87.1168    6.9950 F       1  UNL1       -0.1659
     18 F          60.0585   89.5952    8.1992 F       1  UNL1       -0.1659
     19 C          63.4197   88.3404   16.1121 C.3     1  UNL1        0.0294
     20 C          63.1168   89.8048   16.2301 C.3     1  UNL1        0.0666
     21 S          64.1277   90.8183   15.7817 S.3     1  UNL1       -0.0756
     22 C          66.3275   92.8381   14.4662 C.3     1  UNL1        0.1340
     23 N          65.2578   92.0945   13.7228 N.ar    1  UNL1       -0.2884
     24 C          64.2467   91.1661   14.3274 C.ar    1  UNL1        0.1932
     25 N          63.3753   90.6465   13.2225 N.ar    1  UNL1       -0.1221
     26 N          63.8480   91.2538   11.9349 N.ar    1  UNL1       -0.1282
     27 C          65.0115   92.1487   12.2441 C.ar    1  UNL1        0.1683
     28 C          65.7915   92.9561   11.2493 C.ar    1  UNL1        0.0534
     29 C          65.4634   94.4042   11.0363 C.ar    1  UNL1        0.0094
     30 C          66.2435   95.2115   10.0415 C.ar    1  UNL1        0.0609
     31 C          67.3517   94.5707    9.2596 C.ar    1  UNL1        0.2610
     32 O          68.1318   95.3780    8.2648 O.2     1  UNL1       -0.2670
     33 N          67.6799   93.1226    9.4726 N.ar    1  UNL1       -0.2921
     34 C          68.7881   92.4819    8.6908 C.3     1  UNL1        0.1336
     35 C          66.8997   92.3153   10.4675 C.ar    1  UNL1        0.0814
@<TRIPOS>BOND
     1    22    23    1
     2    23    24   ar
     3    24    21    1
     4    21    20    1
     5    20    19    1
     6    19     1    1
     7     1     2    1
     8     2     3    1
     9     3     4    1
    10     5     4    1
    11     5     6    1
    12     6     7    1
    13     7     9    1
    14     9    10   ar
    15    10    11   ar
    16    11    12   ar
    17    12    15    1
    18    15    16    1
    19    15    17    1
    20    15    18    1
    21    12    13   ar
    22    13    14   ar
    23     5     8    1
    24    24    25   ar
    25    25    26   ar
    26    26    27   ar
    27    27    28    1
    28    28    29   ar
    29    29    30   ar
    30    30    31   ar
    31    31    32    2
    32    31    33   ar
    33    33    34    1
    34    33    35   ar
    35    27    23   ar
    36    35    28   ar
    37     8     2    1
    38     7     5    1
    39    14     9   ar
@<TRIPOS>MOLECULE
*****
 35 39 0 0 0
SMALL
GASTEIGER

@<TRIPOS>ATOM
      1 C          64.9061   85.1224   14.5755 C.3     1  UNL1        0.0730
      2 N          64.3098   86.3038   15.2818 N.3     1  UNL1       -0.2726
      3 C          63.5445   86.2660   16.5713 C.3     1  UNL1        0.0721
      4 C          63.1359   87.6692   16.9090 C.3     1  UNL1        0.0190
      5 C          63.6487   88.5742   15.8282 C.3     1  UNL1        0.0201
      6 C          63.1093   89.8437   16.4176 C.3     1  UNL1        0.0061
      7 C          63.8746   89.8815   15.1281 C.3     1  UNL1        0.0237
      8 C          64.3742   87.7303   14.8225 C.3     1  UNL1        0.0724
      9 C          64.4469   90.6580   13.9794 C.ar    1  UNL1       -0.0225
     10 C          65.7774   91.3360   14.1213 C.ar    1  UNL1       -0.0043
     11 C          66.3497   92.1125   12.9726 C.ar    1  UNL1        0.0035
     12 C          65.5916   92.2110   11.6821 C.ar    1  UNL1        0.0714
     13 C          64.2611   91.5329   11.5402 C.ar    1  UNL1        0.0035
     14 C          63.6888   90.7564   12.6889 C.ar    1  UNL1       -0.0043
     15 C          66.1639   92.9875   10.5334 C.3     1  UNL1        0.4186
     16 F          66.7363   93.7640    9.3847 F       1  UNL1       -0.1659
     17 F          65.0581   93.9927   10.6620 F       1  UNL1       -0.1659
     18 F          67.2697   91.9822   10.4048 F       1  UNL1       -0.1659
     19 C          64.3105   83.7584   14.7613 C.3     1  UNL1        0.0294
     20 C          64.7963   82.6081   13.9300 C.3     1  UNL1        0.0666
     21 S          63.9830   82.1290   12.7643 S.3     1  UNL1       -0.0756
     22 C          62.0300   84.7425   12.8339 C.3     1  UNL1        0.1340
     23 N          62.8057   84.2529   11.6471 N.ar    1  UNL1       -0.2884
     24 C          63.7034   83.0516   11.6151 C.ar    1  UNL1        0.1932
     25 N          64.2725   82.9348   10.2322 N.ar    1  UNL1       -0.1221
     26 N          63.7266   84.0640    9.4095 N.ar    1  UNL1       -0.1282
     27 C          62.8200   84.8787   10.2839 C.ar    1  UNL1        0.1683
     28 C          62.0611   86.1039    9.8681 C.ar    1  UNL1        0.0534
     29 C          62.4635   87.4498   10.3940 C.ar    1  UNL1        0.0094
     30 C          61.7045   88.6750    9.9782 C.ar    1  UNL1        0.0609
     31 C          60.5431   88.5542    9.0365 C.ar    1  UNL1        0.2610
     32 O          59.7841   89.7794    8.6208 O.2     1  UNL1       -0.2670
     33 N          60.1407   87.2082    8.5107 N.ar    1  UNL1       -0.2921
     34 C          58.9793   87.0875    7.5691 C.3     1  UNL1        0.1336
     35 C          60.8997   85.9830    8.9265 C.ar    1  UNL1        0.0814
@<TRIPOS>BOND
     1    22    23    1
     2    23    24   ar
     3    24    21    1
     4    21    20    1
     5    20    19    1
     6    19     1    1
     7     1     2    1
     8     2     3    1
     9     3     4    1
    10     5     4    1
    11     5     6    1
    12     6     7    1
    13     7     9    1
    14     9    10   ar
    15    10    11   ar
    16    11    12   ar
    17    12    15    1
    18    15    16    1
    19    15    17    1
    20    15    18    1
    21    12    13   ar
    22    13    14   ar
    23     5     8    1
    24    24    25   ar
    25    25    26   ar
    26    26    27   ar
    27    27    28    1
    28    28    29   ar
    29    29    30   ar
    30    30    31   ar
    31    31    32    2
    32    31    33   ar
    33    33    34    1
    34    33    35   ar
    35    27    23   ar
    36    35    28   ar
    37     8     2    1
    38     7     5    1
    39    14     9   ar
@<TRIPOS>MOLECULE
*****
 35 39 0 0 0
SMALL
GASTEIGER

@<TRIPOS>ATOM
      1 C          63.5054   90.1154   15.9264 C.3     1  UNL1        0.0730
      2 N          63.9770   90.7569   14.6552 N.3     1  UNL1       -0.2726
      3 C          65.0340   91.8152   14.5411 C.3     1  UNL1        0.0721
      4 C          65.1847   92.1651   13.0903 C.3     1  UNL1        0.0190
      5 C          64.2210   91.3232   12.3078 C.3     1  UNL1        0.0201
      6 C          64.5893   91.8732   10.9618 C.3     1  UNL1        0.0061
      7 C          63.5324   90.8150   11.0759 C.3     1  UNL1        0.0237
      8 C          63.4746   90.4529   13.2750 C.3     1  UNL1        0.0724
      9 C          62.5247   89.9106   10.4305 C.ar    1  UNL1       -0.0225
     10 C          62.8221   88.4490   10.2711 C.ar    1  UNL1       -0.0043
     11 C          61.8143   87.5446    9.6257 C.ar    1  UNL1        0.0035
     12 C          60.5092   88.1018    9.1398 C.ar    1  UNL1        0.0714
     13 C          60.2118   89.5634    9.2993 C.ar    1  UNL1        0.0035
     14 C          61.2195   90.4678    9.9446 C.ar    1  UNL1       -0.0043
     15 C          59.5014   87.1974    8.4945 C.3     1  UNL1        0.4186
     16 F          58.4936   86.2930    7.8491 F       1  UNL1       -0.1659
     17 F          60.1878   86.0055    9.0930 F       1  UNL1       -0.1659
     18 F          58.8151   88.3893    7.8960 F       1  UNL1       -0.1659
     19 C          63.0683   88.6805   15.9250 C.3     1  UNL1        0.0294
     20 C          63.1270   87.8772   17.1905 C.3     1  UNL1        0.0666
     21 S          63.1174   86.3786   17.1287 S.3     1  UNL1       -0.0756
     22 C          61.6737   84.0925   15.3014 C.3     1  UNL1        0.1340
     23 N          63.0648   84.6217   15.1148 N.ar    1  UNL1       -0.2884
     24 C          63.7284   85.6725   15.9547 C.ar    1  UNL1        0.1932
     25 N          65.1102   85.8933   15.4146 N.ar    1  UNL1       -0.1221
     26 N          65.3007   84.9789   14.2409 N.ar    1  UNL1       -0.1282
     27 C          64.0365   84.1930   14.0555 C.ar    1  UNL1        0.1683
     28 C          63.7878   83.1598   12.9969 C.ar    1  UNL1        0.0534
     29 C          64.1049   83.4641   11.5627 C.ar    1  UNL1        0.0094
     30 C          63.8562   82.4310   10.5041 C.ar    1  UNL1        0.0609
     31 C          63.2904   81.0935   10.8797 C.ar    1  UNL1        0.2610
     32 O          63.0416   80.0604    9.8210 O.2     1  UNL1       -0.2670
     33 N          62.9732   80.7892   12.3138 N.ar    1  UNL1       -0.2921
     34 C          62.4074   79.4517   12.6893 C.3     1  UNL1        0.1336
     35 C          63.2220   81.8224   13.3724 C.ar    1  UNL1        0.0814
@<TRIPOS>BOND
     1    22    23    1
     2    23    24   ar
     3    24    21    1
     4    21    20    1
     5    20    19    1
     6    19     1    1
     7     1     2    1
     8     2     3    1
     9     3     4    1
    10     5     4    1
    11     5     6    1
    12     6     7    1
    13     7     9    1
    14     9    10   ar
    15    10    11   ar
    16    11    12   ar
    17    12    15    1
    18    15    16    1
    19    15    17    1
    20    15    18    1
    21    12    13   ar
    22    13    14   ar
    23     5     8    1
    24    24    25   ar
    25    25    26   ar
    26    26    27   ar
    27    27    28    1
    28    28    29   ar
    29    29    30   ar
    30    30    31   ar
    31    31    32    2
    32    31    33   ar
    33    33    34    1
    34    33    35   ar
    35    27    23   ar
    36    35    28   ar
    37     8     2    1
    38     7     5    1
    39    14     9   ar
@<TRIPOS>MOLECULE
*****
 35 39 0 0 0
SMALL
GASTEIGER

@<TRIPOS>ATOM
      1 C          63.4798   91.7816    9.8042 C.3     1  UNL1        0.0730
      2 N          64.3746   92.1763   10.9416 N.3     1  UNL1       -0.2726
      3 C          65.3517   93.3143   10.9407 C.3     1  UNL1        0.0721
      4 C          66.0303   93.3436   12.2781 C.3     1  UNL1        0.0190
      5 C          65.4725   92.2236   13.1056 C.3     1  UNL1        0.0201
      6 C          66.3040   92.4990   14.3232 C.3     1  UNL1        0.0061
      7 C          65.3269   91.3610   14.3241 C.3     1  UNL1        0.0237
      8 C          64.4492   91.5022   12.2795 C.3     1  UNL1        0.0724
      9 C          64.6786   90.2059   15.0280 C.ar    1  UNL1       -0.0225
     10 C          64.9163   88.8052   14.5467 C.ar    1  UNL1       -0.0043
     11 C          64.2681   87.6502   15.2507 C.ar    1  UNL1        0.0035
     12 C          63.3822   87.8958   16.4360 C.ar    1  UNL1        0.0714
     13 C          63.1445   89.2965   16.9172 C.ar    1  UNL1        0.0035
     14 C          63.7927   90.4516   16.2133 C.ar    1  UNL1       -0.0043
     15 C          62.7339   86.7408   17.1399 C.3     1  UNL1        0.4186
     16 F          62.0856   85.5857   17.8440 F       1  UNL1       -0.1659
     17 F          62.7024   85.9732   15.8516 F       1  UNL1       -0.1659
     18 F          62.7654   87.5083   18.4283 F       1  UNL1       -0.1659
     19 C          62.6205   90.5572    9.9160 C.3     1  UNL1        0.0294
     20 C          61.2668   90.6468   10.5558 C.3     1  UNL1        0.0666
     21 S          60.2080   89.6405   10.2149 S.3     1  UNL1       -0.0756
     22 C          62.4132   87.9527   11.9290 C.3     1  UNL1        0.1340
     23 N          61.5943   87.4278   10.7871 N.ar    1  UNL1       -0.2884
     24 C          60.5807   88.2036    9.9992 C.ar    1  UNL1        0.1932
     25 N          60.0052   87.2902    8.9578 N.ar    1  UNL1       -0.1221
     26 N          60.6631   85.9500    9.1020 N.ar    1  UNL1       -0.1282
     27 C          61.6452   86.0349   10.2326 C.ar    1  UNL1        0.1683
     28 C          62.5240   84.9224   10.7227 C.ar    1  UNL1        0.0534
     29 C          63.3806   84.1614    9.7547 C.ar    1  UNL1        0.0094
     30 C          64.2594   83.0489   10.2447 C.ar    1  UNL1        0.0609
     31 C          64.2814   82.6975   11.7029 C.ar    1  UNL1        0.2610
     32 O          65.1602   81.5850   12.1929 O.2     1  UNL1       -0.2670
     33 N          63.4248   83.4585   12.6709 N.ar    1  UNL1       -0.2921
     34 C          63.4469   83.1070   14.1289 C.3     1  UNL1        0.1336
     35 C          62.5461   84.5710   12.1807 C.ar    1  UNL1        0.0814
@<TRIPOS>BOND
     1    22    23    1
     2    23    24   ar
     3    24    21    1
     4    21    20    1
     5    20    19    1
     6    19     1    1
     7     1     2    1
     8     2     3    1
     9     3     4    1
    10     5     4    1
    11     5     6    1
    12     6     7    1
    13     7     9    1
    14     9    10   ar
    15    10    11   ar
    16    11    12   ar
    17    12    15    1
    18    15    16    1
    19    15    17    1
    20    15    18    1
    21    12    13   ar
    22    13    14   ar
    23     5     8    1
    24    24    25   ar
    25    25    26   ar
    26    26    27   ar
    27    27    28    1
    28    28    29   ar
    29    29    30   ar
    30    30    31   ar
    31    31    32    2
    32    31    33   ar
    33    33    34    1
    34    33    35   ar
    35    27    23   ar
    36    35    28   ar
    37     8     2    1
    38     7     5    1
    39    14     9   ar
@<TRIPOS>MOLECULE
*****
 35 39 0 0 0
SMALL
GASTEIGER

@<TRIPOS>ATOM
      1 C          61.7498   90.0709   12.1385 C.3     1  UNL1        0.0730
      2 N          62.9982   90.3322   12.9279 N.3     1  UNL1       -0.2726
      3 C          63.3567   89.7069   14.2433 C.3     1  UNL1        0.0721
      4 C          64.6874   90.2530   14.6688 C.3     1  UNL1        0.0190
      5 C          65.1513   91.2159   13.6163 C.3     1  UNL1        0.0201
      6 C          66.4413   91.5765   14.2913 C.3     1  UNL1        0.0061
      7 C          66.0828   92.2019   12.9759 C.3     1  UNL1        0.0237
      8 C          64.1073   91.2649   12.5404 C.3     1  UNL1        0.0724
      9 C          66.4136   93.1321   11.8467 C.ar    1  UNL1       -0.0225
     10 C          66.1052   94.5953   11.9654 C.ar    1  UNL1       -0.0043
     11 C          66.4361   95.5256   10.8362 C.ar    1  UNL1        0.0035
     12 C          67.0753   94.9927    9.5883 C.ar    1  UNL1        0.0714
     13 C          67.3837   93.5295    9.4695 C.ar    1  UNL1        0.0035
     14 C          67.0529   92.5992   10.5987 C.ar    1  UNL1       -0.0043
     15 C          67.4061   95.9229    8.4591 C.3     1  UNL1        0.4186
     16 F          67.7370   96.8533    7.3298 F       1  UNL1       -0.1659
     17 F          66.7100   95.0048    7.4987 F       1  UNL1       -0.1659
     18 F          68.1023   96.8411    9.4194 F       1  UNL1       -0.1659
     19 C          61.8448   89.6606   10.6988 C.3     1  UNL1        0.0294
     20 C          60.6581   89.0518   10.0124 C.3     1  UNL1        0.0666
     21 S          60.8592   88.0497    8.9146 S.3     1  UNL1       -0.0756
     22 C          60.9891   86.3870   11.7195 C.3     1  UNL1        0.1340
     23 N          61.7254   86.0465   10.4579 N.ar    1  UNL1       -0.2884
     24 C          61.6658   86.8108    9.1686 C.ar    1  UNL1        0.1932
     25 N          62.5542   86.1186    8.1778 N.ar    1  UNL1       -0.1221
     26 N          63.1630   84.9265    8.8548 N.ar    1  UNL1       -0.1282
     27 C          62.6508   84.8819   10.2640 C.ar    1  UNL1        0.1683
     28 C          63.0023   83.8533   11.2977 C.ar    1  UNL1        0.0534
     29 C          63.3430   82.4542   10.8780 C.ar    1  UNL1        0.0094
     30 C          63.6945   81.4256   11.9117 C.ar    1  UNL1        0.0609
     31 C          63.7052   81.7964   13.3652 C.ar    1  UNL1        0.2610
     32 O          64.0566   80.7678   14.3989 O.2     1  UNL1       -0.2670
     33 N          63.3644   83.1956   13.7849 N.ar    1  UNL1       -0.2921
     34 C          63.3752   83.5662   15.2383 C.3     1  UNL1        0.1336
     35 C          63.0130   84.2241   12.7511 C.ar    1  UNL1        0.0814
@<TRIPOS>BOND
     1    22    23    1
     2    23    24   ar
     3    24    21    1
     4    21    20    1
     5    20    19    1
     6    19     1    1
     7     1     2    1
     8     2     3    1
     9     3     4    1
    10     5     4    1
    11     5     6    1
    12     6     7    1
    13     7     9    1
    14     9    10   ar
    15    10    11   ar
    16    11    12   ar
    17    12    15    1
    18    15    16    1
    19    15    17    1
    20    15    18    1
    21    12    13   ar
    22    13    14   ar
    23     5     8    1
    24    24    25   ar
    25    25    26   ar
    26    26    27   ar
    27    27    28    1
    28    28    29   ar
    29    29    30   ar
    30    30    31   ar
    31    31    32    2
    32    31    33   ar
    33    33    34    1
    34    33    35   ar
    35    27    23   ar
    36    35    28   ar
    37     8     2    1
    38     7     5    1
    39    14     9   ar
@<TRIPOS>MOLECULE
*****
 35 39 0 0 0
SMALL
GASTEIGER

@<TRIPOS>ATOM
      1 C          58.7811   89.7239    6.7549 C.3     1  UNL1        0.0730
      2 N          59.3744   88.6203    7.5795 N.3     1  UNL1       -0.2726
      3 C          59.0207   87.1653    7.4905 C.3     1  UNL1        0.0721
      4 C          59.8533   86.4237    8.4939 C.3     1  UNL1        0.0190
      5 C          60.7216   87.4204    9.2031 C.3     1  UNL1        0.0201
      6 C          61.4024   86.4270   10.0973 C.3     1  UNL1        0.0061
      7 C          61.7561   87.8820   10.1863 C.3     1  UNL1        0.0237
      8 C          60.4256   88.7780    8.6379 C.3     1  UNL1        0.0724
      9 C          62.5575   88.9885   10.8054 C.ar    1  UNL1       -0.0225
     10 C          62.8456   90.2349   10.0219 C.ar    1  UNL1       -0.0043
     11 C          63.6470   91.3414   10.6410 C.ar    1  UNL1        0.0035
     12 C          64.1604   91.2016   12.0435 C.ar    1  UNL1        0.0714
     13 C          63.8723   89.9553   12.8269 C.ar    1  UNL1        0.0035
     14 C          63.0709   88.8488   12.2078 C.ar    1  UNL1       -0.0043
     15 C          64.9618   92.3082   12.6625 C.3     1  UNL1        0.4186
     16 F          65.7633   93.4148   13.2816 F       1  UNL1       -0.1659
     17 F          65.0088   93.0141   11.3398 F       1  UNL1       -0.1659
     18 F          64.9148   91.6022   13.9851 F       1  UNL1       -0.1659
     19 C          59.5664   90.3213    5.6251 C.3     1  UNL1        0.0294
     20 C          59.3155   91.7392    5.2046 C.3     1  UNL1        0.0666
     21 S          59.5226   92.1454    3.7756 S.3     1  UNL1       -0.0756
     22 C          60.3512   94.3094    1.4777 C.3     1  UNL1        0.1340
     23 N          61.2896   93.3924    2.2048 N.ar    1  UNL1       -0.2884
     24 C          60.9087   92.3978    3.2610 C.ar    1  UNL1        0.1932
     25 N          62.1574   91.6997    3.7123 N.ar    1  UNL1       -0.1221
     26 N          63.3100   92.2630    2.9350 N.ar    1  UNL1       -0.1282
     27 C          62.7738   93.3092    2.0033 C.ar    1  UNL1        0.1683
     28 C          63.5800   94.1282    1.0393 C.ar    1  UNL1        0.0534
     29 C          64.4864   95.2093    1.5489 C.ar    1  UNL1        0.0094
     30 C          65.2927   96.0283    0.5850 C.ar    1  UNL1        0.0609
     31 C          65.1924   95.7662   -0.8886 C.ar    1  UNL1        0.2610
     32 O          65.9987   96.5852   -1.8525 O.2     1  UNL1       -0.2670
     33 N          64.2860   94.6851   -1.3982 N.ar    1  UNL1       -0.2921
     34 C          64.1859   94.4231   -2.8717 C.3     1  UNL1        0.1336
     35 C          63.4798   93.8661   -0.4342 C.ar    1  UNL1        0.0814
@<TRIPOS>BOND
     1    22    23    1
     2    23    24   ar
     3    24    21    1
     4    21    20    1
     5    20    19    1
     6    19     1    1
     7     1     2    1
     8     2     3    1
     9     3     4    1
    10     5     4    1
    11     5     6    1
    12     6     7    1
    13     7     9    1
    14     9    10   ar
    15    10    11   ar
    16    11    12   ar
    17    12    15    1
    18    15    16    1
    19    15    17    1
    20    15    18    1
    21    12    13   ar
    22    13    14   ar
    23     5     8    1
    24    24    25   ar
    25    25    26   ar
    26    26    27   ar
    27    27    28    1
    28    28    29   ar
    29    29    30   ar
    30    30    31   ar
    31    31    32    2
    32    31    33   ar
    33    33    34    1
    34    33    35   ar
    35    27    23   ar
    36    35    28   ar
    37     8     2    1
    38     7     5    1
    39    14     9   ar
@<TRIPOS>MOLECULE
*****
 35 39 0 0 0
SMALL
GASTEIGER

@<TRIPOS>ATOM
      1 C          64.6316   91.7180   16.4816 C.3     1  UNL1        0.0730
      2 N          65.0798   92.1090   15.1045 N.3     1  UNL1       -0.2726
      3 C          66.1769   93.0778   14.7763 C.3     1  UNL1        0.0721
      4 C          66.2846   93.1675   13.2829 C.3     1  UNL1        0.0190
      5 C          65.2541   92.2541   12.6881 C.3     1  UNL1        0.0201
      6 C          65.5920   92.5476   11.2564 C.3     1  UNL1        0.0061
      7 C          64.4949   91.5788   11.5847 C.3     1  UNL1        0.0237
      8 C          64.5094   91.6000   13.8140 C.3     1  UNL1        0.0724
      9 C          63.4231   90.6296   11.1371 C.ar    1  UNL1       -0.0225
     10 C          63.2229   89.3301   11.8590 C.ar    1  UNL1       -0.0043
     11 C          62.1511   88.3809   11.4115 C.ar    1  UNL1        0.0035
     12 C          61.2796   88.7312   10.2420 C.ar    1  UNL1        0.0714
     13 C          61.4798   90.0308    9.5201 C.ar    1  UNL1        0.0035
     14 C          62.5515   90.9800    9.9677 C.ar    1  UNL1       -0.0043
     15 C          60.2078   87.7820    9.7945 C.3     1  UNL1        0.4186
     16 F          59.1360   86.8328    9.3469 F       1  UNL1       -0.1659
     17 F          59.8853   88.6887    8.6438 F       1  UNL1       -0.1659
     18 F          60.5303   86.8754   10.9451 F       1  UNL1       -0.1659
     19 C          63.4583   90.8000   16.6560 C.3     1  UNL1        0.0294
     20 C          63.5141   89.4008   16.1180 C.3     1  UNL1        0.0666
     21 S          63.3046   88.2347   17.0380 S.3     1  UNL1       -0.0756
     22 C          64.3725   86.7578   14.3309 C.3     1  UNL1        0.1340
     23 N          63.2996   86.2497   15.2479 N.ar    1  UNL1       -0.2884
     24 C          62.8088   86.9285   16.4921 C.ar    1  UNL1        0.1932
     25 N          61.7350   86.0718   17.0948 N.ar    1  UNL1       -0.1221
     26 N          61.5622   84.8635   16.2230 N.ar    1  UNL1       -0.1282
     27 C          62.5292   84.9733   15.0814 C.ar    1  UNL1        0.1683
     28 C          62.6964   83.9812   13.9689 C.ar    1  UNL1        0.0534
     29 C          63.0905   84.4493   12.5994 C.ar    1  UNL1        0.0094
     30 C          63.2576   83.4571   11.4869 C.ar    1  UNL1        0.0609
     31 C          63.0307   81.9968   11.7441 C.ar    1  UNL1        0.2610
     32 O          63.1979   81.0046   10.6316 O.2     1  UNL1       -0.2670
     33 N          62.6366   81.5287   13.1136 N.ar    1  UNL1       -0.2921
     34 C          62.4097   80.0684   13.3706 C.3     1  UNL1        0.1336
     35 C          62.4694   82.5209   14.2260 C.ar    1  UNL1        0.0814
@<TRIPOS>BOND
     1    22    23    1
     2    23    24   ar
     3    24    21    1
     4    21    20    1
     5    20    19    1
     6    19     1    1
     7     1     2    1
     8     2     3    1
     9     3     4    1
    10     5     4    1
    11     5     6    1
    12     6     7    1
    13     7     9    1
    14     9    10   ar
    15    10    11   ar
    16    11    12   ar
    17    12    15    1
    18    15    16    1
    19    15    17    1
    20    15    18    1
    21    12    13   ar
    22    13    14   ar
    23     5     8    1
    24    24    25   ar
    25    25    26   ar
    26    26    27   ar
    27    27    28    1
    28    28    29   ar
    29    29    30   ar
    30    30    31   ar
    31    31    32    2
    32    31    33   ar
    33    33    34    1
    34    33    35   ar
    35    27    23   ar
    36    35    28   ar
    37     8     2    1
    38     7     5    1
    39    14     9   ar
