@<TRIPOS>MOLECULE
*****
 24 28 0 0 0
SMALL
GASTEIGER

@<TRIPOS>ATOM
      1 O          61.9969   84.8781   14.3574 O.3     1  UNL1       -0.3800
      2 C          62.4594   84.1910   13.1068 C.3     1  UNL1        0.1345
      3 C          62.4877   82.6927   13.0409 C.ar    1  UNL1        0.0003
      4 C          62.0535   81.8816   14.2256 C.ar    1  UNL1       -0.0023
      5 C          62.0818   80.3833   14.1597 C.ar    1  UNL1       -0.0003
      6 C          62.5443   79.6962   12.9091 C.ar    1  UNL1       -0.0003
      7 C          62.9786   80.5073   11.7244 C.ar    1  UNL1       -0.0045
      8 C          62.9503   82.0056   11.7904 C.ar    1  UNL1       -0.0239
      9 C          63.3845   82.8168   10.6057 C.3     1  UNL1        0.0263
     10 C          63.3562   84.3151   10.6716 C.3     1  UNL1        0.0096
     11 C          62.8937   85.0022   11.9221 C.3     1  UNL1        0.0565
     12 H          61.7543   84.2133   15.0208 H       1  UNL1        0.2108
     13 C          62.8654   86.5005   11.9880 C.3     1  UNL1        0.1121
     14 C          62.1611   87.4121   11.0273 C.ar    1  UNL1       -0.0002
     15 C          61.3356   87.1380    9.8053 C.ar    1  UNL1       -0.0024
     16 C          60.7458   88.2770    9.0277 C.ar    1  UNL1       -0.0003
     17 C          60.9815   89.6902    9.4721 C.ar    1  UNL1        0.0000
     18 C          61.8070   89.9643   10.6941 C.ar    1  UNL1        0.0012
     19 C          62.3968   88.8252   11.4717 C.ar    1  UNL1        0.0152
     20 C          63.2468   88.7870   12.7070 C.ar    1  UNL1        0.0804
     21 C          63.9179   89.6367   13.7452 C.ar    1  UNL1        0.1177
     22 N          64.6222   88.7250   14.7059 N.ar    1  UNL1       -0.2223
     23 C          64.3864   87.3119   14.2615 C.ar    1  UNL1        0.1788
     24 N          63.5364   87.3502   13.0261 N.ar    1  UNL1       -0.3069
@<TRIPOS>BOND
     1     2     1    1
     2     2     3    1
     3     3     4   ar
     4     4     5   ar
     5     5     6   ar
     6     6     7   ar
     7     7     8   ar
     8     8     9    1
     9     9    10    1
    10    11    10    1
    11    11    13    1
    12    13    14    1
    13    14    15   ar
    14    15    16   ar
    15    16    17   ar
    16    17    18   ar
    17    18    19   ar
    18    19    20    1
    19    20    21   ar
    20    21    22   ar
    21    22    23   ar
    22    23    24   ar
    23    11     2    1
    24    13    24    1
    25     8     3   ar
    26    19    14   ar
    27    24    20   ar
    28     1    12    1
@<TRIPOS>MOLECULE
*****
 24 28 0 0 0
SMALL
GASTEIGER

@<TRIPOS>ATOM
      1 O          61.5991   91.1762   10.3672 O.3     1  UNL1       -0.3800
      2 C          61.7942   89.7006   10.5523 C.3     1  UNL1        0.1345
      3 C          61.0649   88.7311    9.6702 C.ar    1  UNL1        0.0003
      4 C          60.1405   89.2374    8.6029 C.ar    1  UNL1       -0.0023
      5 C          59.4111   88.2680    7.7208 C.ar    1  UNL1       -0.0003
      6 C          59.6062   86.7923    7.9059 C.ar    1  UNL1       -0.0003
      7 C          60.5306   86.2860    8.9731 C.ar    1  UNL1       -0.0045
      8 C          61.2600   87.2554    9.8553 C.ar    1  UNL1       -0.0239
      9 C          62.1844   86.7492   10.9226 C.3     1  UNL1        0.0263
     10 C          62.9138   87.7186   11.8047 C.3     1  UNL1        0.0096
     11 C          62.7187   89.1943   11.6197 C.3     1  UNL1        0.0565
     12 H          60.9749   91.3313    9.6411 H       1  UNL1        0.2108
     13 C          63.4481   90.1637   12.5019 C.3     1  UNL1        0.1121
     14 C          64.3386   91.2787   12.0394 C.ar    1  UNL1       -0.0002
     15 C          64.7452   91.7363   10.6701 C.ar    1  UNL1       -0.0024
     16 C          65.6691   92.9076   10.5143 C.ar    1  UNL1       -0.0003
     17 C          66.1864   93.6214   11.7280 C.ar    1  UNL1        0.0000
     18 C          65.7798   93.1638   13.0974 C.ar    1  UNL1        0.0012
     19 C          64.8558   91.9925   13.2531 C.ar    1  UNL1        0.0152
     20 C          64.2850   91.3186   14.4655 C.ar    1  UNL1        0.0804
     21 C          64.2520   91.3433   15.9651 C.ar    1  UNL1        0.1177
     22 N          63.3615   90.2282   16.4274 N.ar    1  UNL1       -0.2223
     23 C          62.8442   89.5145   15.2138 C.ar    1  UNL1        0.1788
     24 N          63.4150   90.1884   14.0013 N.ar    1  UNL1       -0.3069
@<TRIPOS>BOND
     1     2     1    1
     2     2     3    1
     3     3     4   ar
     4     4     5   ar
     5     5     6   ar
     6     6     7   ar
     7     7     8   ar
     8     8     9    1
     9     9    10    1
    10    11    10    1
    11    11    13    1
    12    13    14    1
    13    14    15   ar
    14    15    16   ar
    15    16    17   ar
    16    17    18   ar
    17    18    19   ar
    18    19    20    1
    19    20    21   ar
    20    21    22   ar
    21    22    23   ar
    22    23    24   ar
    23    11     2    1
    24    13    24    1
    25     8     3   ar
    26    19    14   ar
    27    24    20   ar
    28     1    12    1
@<TRIPOS>MOLECULE
*****
 24 28 0 0 0
SMALL
GASTEIGER

@<TRIPOS>ATOM
      1 O          61.6316   85.8721   13.1374 O.3     1  UNL1       -0.3800
      2 C          62.3364   85.0315   12.1143 C.3     1  UNL1        0.1345
      3 C          62.8562   83.6748   12.4874 C.ar    1  UNL1        0.0003
      4 C          62.6712   83.1588   13.8836 C.ar    1  UNL1       -0.0023
      5 C          63.1910   81.8021   14.2568 C.ar    1  UNL1       -0.0003
      6 C          63.8957   80.9615   13.2337 C.ar    1  UNL1       -0.0003
      7 C          64.0808   81.4775   11.8375 C.ar    1  UNL1       -0.0045
      8 C          63.5610   82.8342   11.4644 C.ar    1  UNL1       -0.0239
      9 C          63.7460   83.3503   10.0682 C.3     1  UNL1        0.0263
     10 C          63.2262   84.7070    9.6951 C.3     1  UNL1        0.0096
     11 C          62.5214   85.5476   10.7180 C.3     1  UNL1        0.0565
     12 H          61.5976   85.3940   13.9807 H       1  UNL1        0.2108
     13 C          62.0016   86.9043   10.3449 C.3     1  UNL1        0.1121
     14 C          61.0087   87.2004    9.2603 C.ar    1  UNL1       -0.0002
     15 C          60.2857   86.3121    8.2917 C.ar    1  UNL1       -0.0024
     16 C          59.3309   86.9057    7.2987 C.ar    1  UNL1       -0.0003
     17 C          59.0991   88.3874    7.2744 C.ar    1  UNL1        0.0000
     18 C          59.8221   89.2757    8.2430 C.ar    1  UNL1        0.0012
     19 C          60.7769   88.6822    9.2359 C.ar    1  UNL1        0.0152
     20 C          61.6266   89.3018   10.3055 C.ar    1  UNL1        0.0804
     21 C          62.0084   90.6007   10.9515 C.ar    1  UNL1        0.1177
     22 N          63.0014   90.3046   12.0362 N.ar    1  UNL1       -0.2223
     23 C          63.2332   88.8228   12.0605 C.ar    1  UNL1        0.1788
     24 N          62.3835   88.2031   10.9909 N.ar    1  UNL1       -0.3069
@<TRIPOS>BOND
     1     2     1    1
     2     2     3    1
     3     3     4   ar
     4     4     5   ar
     5     5     6   ar
     6     6     7   ar
     7     7     8   ar
     8     8     9    1
     9     9    10    1
    10    11    10    1
    11    11    13    1
    12    13    14    1
    13    14    15   ar
    14    15    16   ar
    15    16    17   ar
    16    17    18   ar
    17    18    19   ar
    18    19    20    1
    19    20    21   ar
    20    21    22   ar
    21    22    23   ar
    22    23    24   ar
    23    11     2    1
    24    13    24    1
    25     8     3   ar
    26    19    14   ar
    27    24    20   ar
    28     1    12    1
@<TRIPOS>MOLECULE
*****
 24 28 0 0 0
SMALL
GASTEIGER

@<TRIPOS>ATOM
      1 O          61.9056   85.0282   14.0827 O.3     1  UNL1       -0.3800
      2 C          62.3975   84.3256   12.8521 C.3     1  UNL1        0.1345
      3 C          62.4925   82.8288   12.8304 C.ar    1  UNL1        0.0003
      4 C          62.0956   82.0346   14.0394 C.ar    1  UNL1       -0.0023
      5 C          62.1906   80.5378   14.0177 C.ar    1  UNL1       -0.0003
      6 C          62.6825   79.8352   12.7871 C.ar    1  UNL1       -0.0003
      7 C          63.0794   80.6294   11.5781 C.ar    1  UNL1       -0.0045
      8 C          62.9844   82.1263   11.5998 C.ar    1  UNL1       -0.0239
      9 C          63.3812   82.9206   10.3908 C.3     1  UNL1        0.0263
     10 C          63.2862   84.4174   10.4125 C.3     1  UNL1        0.0096
     11 C          62.7944   85.1200   11.6431 C.3     1  UNL1        0.0565
     12 H          61.6933   84.3732   14.7659 H       1  UNL1        0.2108
     13 C          62.6994   86.6168   11.6648 C.3     1  UNL1        0.1121
     14 C          63.3121   87.5244   12.6899 C.ar    1  UNL1       -0.0002
     15 C          64.1402   87.2467   13.9094 C.ar    1  UNL1       -0.0024
     16 C          64.6225   88.3820   14.7628 C.ar    1  UNL1       -0.0003
     17 C          64.2768   89.7950   14.3968 C.ar    1  UNL1        0.0000
     18 C          63.4487   90.0726   13.1773 C.ar    1  UNL1        0.0012
     19 C          62.9664   88.9373   12.3239 C.ar    1  UNL1        0.0152
     20 C          62.1400   88.9030   11.0725 C.ar    1  UNL1        0.0804
     21 C          61.4156   89.7551   10.0728 C.ar    1  UNL1        0.1177
     22 N          60.8028   88.8475    9.0477 N.ar    1  UNL1       -0.2223
     23 C          61.1486   87.4345    9.4138 C.ar    1  UNL1        0.1788
     24 N          61.9749   87.4688   10.6651 N.ar    1  UNL1       -0.3069
@<TRIPOS>BOND
     1     2     1    1
     2     2     3    1
     3     3     4   ar
     4     4     5   ar
     5     5     6   ar
     6     6     7   ar
     7     7     8   ar
     8     8     9    1
     9     9    10    1
    10    11    10    1
    11    11    13    1
    12    13    14    1
    13    14    15   ar
    14    15    16   ar
    15    16    17   ar
    16    17    18   ar
    17    18    19   ar
    18    19    20    1
    19    20    21   ar
    20    21    22   ar
    21    22    23   ar
    22    23    24   ar
    23    11     2    1
    24    13    24    1
    25     8     3   ar
    26    19    14   ar
    27    24    20   ar
    28     1    12    1
@<TRIPOS>MOLECULE
*****
 24 28 0 0 0
SMALL
GASTEIGER

@<TRIPOS>ATOM
      1 O          61.4690   85.8436   12.7811 O.3     1  UNL1       -0.3800
      2 C          62.2768   85.0072   11.8335 C.3     1  UNL1        0.1345
      3 C          62.9123   83.7351   12.3110 C.ar    1  UNL1        0.0003
      4 C          62.7399   83.2995   13.7359 C.ar    1  UNL1       -0.0023
      5 C          63.3754   82.0274   14.2133 C.ar    1  UNL1       -0.0003
      6 C          64.1833   81.1910   13.2658 C.ar    1  UNL1       -0.0003
      7 C          64.3557   81.6266   11.8409 C.ar    1  UNL1       -0.0045
      8 C          63.7202   82.8987   11.3634 C.ar    1  UNL1       -0.0239
      9 C          63.8925   83.3344    9.9385 C.3     1  UNL1        0.0263
     10 C          63.2570   84.6065    9.4611 C.3     1  UNL1        0.0096
     11 C          62.4492   85.4429   10.4085 C.3     1  UNL1        0.0565
     12 H          61.4579   85.4227   13.6549 H       1  UNL1        0.2108
     13 C          61.8137   86.7150    9.9311 C.3     1  UNL1        0.1121
     14 C          62.0909   88.0913   10.4593 C.ar    1  UNL1       -0.0002
     15 C          63.0097   88.5868   11.5364 C.ar    1  UNL1       -0.0024
     16 C          63.0756   90.0520   11.8505 C.ar    1  UNL1       -0.0003
     17 C          62.2227   91.0217   11.0876 C.ar    1  UNL1        0.0000
     18 C          61.3038   90.5263   10.0105 C.ar    1  UNL1        0.0012
     19 C          61.2379   89.0610    9.6963 C.ar    1  UNL1        0.0152
     20 C          60.4336   88.2840    8.6966 C.ar    1  UNL1        0.0804
     21 C          59.4093   88.4032    7.6072 C.ar    1  UNL1        0.1177
     22 N          59.1322   87.0268    7.0791 N.ar    1  UNL1       -0.2223
     23 C          59.9851   86.0571    7.8420 C.ar    1  UNL1        0.1788
     24 N          60.7894   86.8341    8.8417 N.ar    1  UNL1       -0.3069
@<TRIPOS>BOND
     1     2     1    1
     2     2     3    1
     3     3     4   ar
     4     4     5   ar
     5     5     6   ar
     6     6     7   ar
     7     7     8   ar
     8     8     9    1
     9     9    10    1
    10    11    10    1
    11    11    13    1
    12    13    14    1
    13    14    15   ar
    14    15    16   ar
    15    16    17   ar
    16    17    18   ar
    17    18    19   ar
    18    19    20    1
    19    20    21   ar
    20    21    22   ar
    21    22    23   ar
    22    23    24   ar
    23    11     2    1
    24    13    24    1
    25     8     3   ar
    26    19    14   ar
    27    24    20   ar
    28     1    12    1
@<TRIPOS>MOLECULE
*****
 24 28 0 0 0
SMALL
GASTEIGER

@<TRIPOS>ATOM
      1 O          63.5677   87.6990   12.6700 O.3     1  UNL1       -0.3800
      2 C          62.7696   88.4569   11.6508 C.3     1  UNL1        0.1345
      3 C          61.9652   87.7148   10.6250 C.ar    1  UNL1        0.0003
      4 C          61.9590   86.2149   10.6184 C.ar    1  UNL1       -0.0023
      5 C          61.1546   85.4728    9.5926 C.ar    1  UNL1       -0.0003
      6 C          60.3566   86.2306    8.5734 C.ar    1  UNL1       -0.0003
      7 C          60.3628   87.7306    8.5800 C.ar    1  UNL1       -0.0045
      8 C          61.1672   88.4727    9.6058 C.ar    1  UNL1       -0.0239
      9 C          61.1735   89.9726    9.6125 C.3     1  UNL1        0.0263
     10 C          61.9779   90.7147   10.6383 C.3     1  UNL1        0.0096
     11 C          62.7759   89.9569   11.6575 C.3     1  UNL1        0.0565
     12 H          63.4543   86.7464   12.5263 H       1  UNL1        0.2108
     13 C          63.5803   90.6990   12.6833 C.3     1  UNL1        0.1121
     14 C          64.6295   91.7333   12.4015 C.ar    1  UNL1       -0.0002
     15 C          65.1592   92.3021   11.1187 C.ar    1  UNL1       -0.0024
     16 C          66.2337   93.3483   11.1493 C.ar    1  UNL1       -0.0003
     17 C          66.7785   93.8256   12.4628 C.ar    1  UNL1        0.0000
     18 C          66.2488   93.2568   13.7457 C.ar    1  UNL1        0.0012
     19 C          65.1743   92.2106   13.7151 C.ar    1  UNL1        0.0152
     20 C          64.4618   91.4713   14.8086 C.ar    1  UNL1        0.0804
     21 C          64.3582   91.3094   16.2963 C.ar    1  UNL1        0.1177
     22 N          63.3089   90.2751   16.5779 N.ar    1  UNL1       -0.2223
     23 C          62.7641   89.7978   15.2644 C.ar    1  UNL1        0.1788
     24 N          63.4766   90.5371   14.1709 N.ar    1  UNL1       -0.3069
@<TRIPOS>BOND
     1     2     1    1
     2     2     3    1
     3     3     4   ar
     4     4     5   ar
     5     5     6   ar
     6     6     7   ar
     7     7     8   ar
     8     8     9    1
     9     9    10    1
    10    11    10    1
    11    11    13    1
    12    13    14    1
    13    14    15   ar
    14    15    16   ar
    15    16    17   ar
    16    17    18   ar
    17    18    19   ar
    18    19    20    1
    19    20    21   ar
    20    21    22   ar
    21    22    23   ar
    22    23    24   ar
    23    11     2    1
    24    13    24    1
    25     8     3   ar
    26    19    14   ar
    27    24    20   ar
    28     1    12    1
@<TRIPOS>MOLECULE
*****
 24 28 0 0 0
SMALL
GASTEIGER

@<TRIPOS>ATOM
      1 O          63.0213   84.7528    9.9017 O.3     1  UNL1       -0.3800
      2 C          62.8315   84.3274   11.3276 C.3     1  UNL1        0.1345
      3 C          62.8414   82.8702   11.6832 C.ar    1  UNL1        0.0003
      4 C          63.0412   81.8385   10.6129 C.ar    1  UNL1       -0.0023
      5 C          63.0511   80.3813   10.9685 C.ar    1  UNL1       -0.0003
      6 C          62.8613   79.9559   12.3943 C.ar    1  UNL1       -0.0003
      7 C          62.6616   80.9876   13.4646 C.ar    1  UNL1       -0.0045
      8 C          62.6516   82.4448   13.1090 C.ar    1  UNL1       -0.0239
      9 C          62.4518   83.4766   14.1792 C.3     1  UNL1        0.0263
     10 C          62.4419   84.9339   13.8236 C.3     1  UNL1        0.0096
     11 C          62.6317   85.3593   12.3979 C.3     1  UNL1        0.0565
     12 H          63.1360   83.9684    9.3428 H       1  UNL1        0.2108
     13 C          62.6217   86.8165   12.0423 C.3     1  UNL1        0.1121
     14 C          63.3137   87.9129   12.7967 C.ar    1  UNL1       -0.0002
     15 C          64.1595   87.8999   14.0354 C.ar    1  UNL1       -0.0024
     16 C          64.7292   89.1811   14.5680 C.ar    1  UNL1       -0.0003
     17 C          64.4532   90.4754   13.8618 C.ar    1  UNL1        0.0000
     18 C          63.6075   90.4884   12.6231 C.ar    1  UNL1        0.0012
     19 C          63.0377   89.2071   12.0905 C.ar    1  UNL1        0.0152
     20 C          62.1751   88.9107   10.8997 C.ar    1  UNL1        0.0804
     21 C          61.4714   89.5274    9.7273 C.ar    1  UNL1        0.1177
     22 N          60.7794   88.4310    8.9729 N.ar    1  UNL1       -0.2223
     23 C          61.0554   87.1367    9.6790 C.ar    1  UNL1        0.1788
     24 N          61.9180   87.4332   10.8699 N.ar    1  UNL1       -0.3069
@<TRIPOS>BOND
     1     2     1    1
     2     2     3    1
     3     3     4   ar
     4     4     5   ar
     5     5     6   ar
     6     6     7   ar
     7     7     8   ar
     8     8     9    1
     9     9    10    1
    10    11    10    1
    11    11    13    1
    12    13    14    1
    13    14    15   ar
    14    15    16   ar
    15    16    17   ar
    16    17    18   ar
    17    18    19   ar
    18    19    20    1
    19    20    21   ar
    20    21    22   ar
    21    22    23   ar
    22    23    24   ar
    23    11     2    1
    24    13    24    1
    25     8     3   ar
    26    19    14   ar
    27    24    20   ar
    28     1    12    1
@<TRIPOS>MOLECULE
*****
 24 28 0 0 0
SMALL
GASTEIGER

@<TRIPOS>ATOM
      1 O          63.9492   91.1151   10.6391 O.3     1  UNL1       -0.3800
      2 C          64.1900   90.8746   12.0999 C.3     1  UNL1        0.1345
      3 C          65.0205   91.8403   12.8921 C.ar    1  UNL1        0.0003
      4 C          65.6103   93.0465   12.2234 C.ar    1  UNL1       -0.0023
      5 C          66.4409   94.0122   13.0156 C.ar    1  UNL1       -0.0003
      6 C          66.6816   93.7717   14.4765 C.ar    1  UNL1       -0.0003
      7 C          66.0918   92.5656   15.1452 C.ar    1  UNL1       -0.0045
      8 C          65.2613   91.5998   14.3530 C.ar    1  UNL1       -0.0239
      9 C          64.6714   90.3937   15.0217 C.3     1  UNL1        0.0263
     10 C          63.8409   89.4279   14.2295 C.3     1  UNL1        0.0096
     11 C          63.6001   89.6684   12.7687 C.3     1  UNL1        0.0565
     12 H          64.3973   91.9315   10.3676 H       1  UNL1        0.2108
     13 C          62.7695   88.7026   11.9765 C.3     1  UNL1        0.1121
     14 C          62.8419   87.2065   12.0552 C.ar    1  UNL1       -0.0002
     15 C          63.6922   86.2846   12.8780 C.ar    1  UNL1       -0.0024
     16 C          63.5386   84.7990   12.7394 C.ar    1  UNL1       -0.0003
     17 C          62.5346   84.2352   11.7781 C.ar    1  UNL1        0.0000
     18 C          61.6842   85.1570   10.9553 C.ar    1  UNL1        0.0012
     19 C          61.8379   86.6427   11.0939 C.ar    1  UNL1        0.0152
     20 C          61.1451   87.7904   10.4211 C.ar    1  UNL1        0.0804
     21 C          60.0963   88.1513    9.4111 C.ar    1  UNL1        0.1177
     22 N          60.0240   89.6476    9.3325 N.ar    1  UNL1       -0.2223
     23 C          61.0280   90.2114   10.2938 C.ar    1  UNL1        0.1788
     24 N          61.7208   89.0636   10.9666 N.ar    1  UNL1       -0.3069
@<TRIPOS>BOND
     1     2     1    1
     2     2     3    1
     3     3     4   ar
     4     4     5   ar
     5     5     6   ar
     6     6     7   ar
     7     7     8   ar
     8     8     9    1
     9     9    10    1
    10    11    10    1
    11    11    13    1
    12    13    14    1
    13    14    15   ar
    14    15    16   ar
    15    16    17   ar
    16    17    18   ar
    17    18    19   ar
    18    19    20    1
    19    20    21   ar
    20    21    22   ar
    21    22    23   ar
    22    23    24   ar
    23    11     2    1
    24    13    24    1
    25     8     3   ar
    26    19    14   ar
    27    24    20   ar
    28     1    12    1
@<TRIPOS>MOLECULE
*****
 24 28 0 0 0
SMALL
GASTEIGER

@<TRIPOS>ATOM
      1 O          63.8464   88.1112   12.9994 O.3     1  UNL1       -0.3800
      2 C          63.1072   88.7537   11.8633 C.3     1  UNL1        0.1345
      3 C          62.2480   87.9193   10.9602 C.ar    1  UNL1        0.0003
      4 C          62.1279   86.4425   11.1934 C.ar    1  UNL1       -0.0023
      5 C          61.2686   85.6081   10.2904 C.ar    1  UNL1       -0.0003
      6 C          60.5295   86.2506    9.1543 C.ar    1  UNL1       -0.0003
      7 C          60.6495   87.7274    8.9211 C.ar    1  UNL1       -0.0045
      8 C          61.5088   88.5618    9.8241 C.ar    1  UNL1       -0.0239
      9 C          61.6289   90.0387    9.5910 C.3     1  UNL1        0.0263
     10 C          62.4882   90.8731   10.4940 C.3     1  UNL1        0.0096
     11 C          63.2274   90.2307   11.6301 C.3     1  UNL1        0.0565
     12 H          63.6610   87.1591   13.0085 H       1  UNL1        0.2108
     13 C          64.0866   91.0651   12.5331 C.3     1  UNL1        0.1121
     14 C          64.0455   91.0696   14.0326 C.ar    1  UNL1       -0.0002
     15 C          63.2066   90.3086   15.0159 C.ar    1  UNL1       -0.0024
     16 C          63.3935   90.5268   16.4881 C.ar    1  UNL1       -0.0003
     17 C          64.4193   91.5059   16.9770 C.ar    1  UNL1        0.0000
     18 C          65.2582   92.2669   15.9936 C.ar    1  UNL1        0.0012
     19 C          65.0714   92.0487   14.5214 C.ar    1  UNL1        0.0152
     20 C          65.7464   92.6493   13.3241 C.ar    1  UNL1        0.0804
     21 C          66.7977   93.6257   12.8863 C.ar    1  UNL1        0.1177
     22 N          66.8387   93.6212   11.3868 N.ar    1  UNL1       -0.2223
     23 C          65.8129   92.6420   10.8979 C.ar    1  UNL1        0.1788
     24 N          65.1378   92.0414   12.0953 N.ar    1  UNL1       -0.3069
@<TRIPOS>BOND
     1     2     1    1
     2     2     3    1
     3     3     4   ar
     4     4     5   ar
     5     5     6   ar
     6     6     7   ar
     7     7     8   ar
     8     8     9    1
     9     9    10    1
    10    11    10    1
    11    11    13    1
    12    13    14    1
    13    14    15   ar
    14    15    16   ar
    15    16    17   ar
    16    17    18   ar
    17    18    19   ar
    18    19    20    1
    19    20    21   ar
    20    21    22   ar
    21    22    23   ar
    22    23    24   ar
    23    11     2    1
    24    13    24    1
    25     8     3   ar
    26    19    14   ar
    27    24    20   ar
    28     1    12    1
