@<TRIPOS>MOLECULE
*****
 36 40 0 0 0
SMALL
GASTEIGER

@<TRIPOS>ATOM
      1 C          63.9098   86.6966   14.0525 C.ar    1  UNL1        0.0503
      2 C          63.9237   86.9871   15.5240 C.ar    1  UNL1        0.0143
      3 C          63.9404   88.4067   16.0081 C.ar    1  UNL1       -0.0029
      4 C          63.9432   89.5358   15.0207 C.ar    1  UNL1       -0.0208
      5 C          63.9293   89.2453   13.5491 C.ar    1  UNL1       -0.0029
      6 C          63.9125   87.8256   13.0650 C.ar    1  UNL1        0.0143
      7 O          62.6990   86.0343   11.3888 O.2     1  UNL1       -0.2727
      8 C          63.2876   84.9458   12.2365 C.2     1  UNL1        0.2469
      9 N          63.8930   85.2769   13.5684 N.am    1  UNL1       -0.2824
     10 H          64.2794   84.5625   14.1248 H       1  UNL1        0.1549
     11 C          63.2709   83.5261   11.7524 C.3     1  UNL1        0.1662
     12 C          63.7467   83.0455   10.4135 C.3     1  UNL1        0.0400
     13 C          63.5453   81.5602   10.3559 C.3     1  UNL1        0.0665
     14 C          62.9450   81.1229   11.6591 C.ar    1  UNL1        0.1229
     15 N          62.5309   79.7753   12.1713 N.ar    1  UNL1       -0.2306
     16 C          61.9472   79.6427   13.5467 C.ar    1  UNL1        0.1051
     17 C          61.7776   80.8577   14.4098 C.ar    1  UNL1        0.0814
     18 C          62.1917   82.2053   13.8976 C.ar    1  UNL1        0.2637
     19 O          62.0221   83.4204   14.7607 O.2     1  UNL1       -0.2669
     20 N          62.7754   82.3379   12.5222 N.ar    1  UNL1       -0.2773
     21 C          63.9599   90.9555   15.5047 C.3     1  UNL1        0.0420
     22 C          64.9288   91.9373   14.9155 C.3     1  UNL1        0.0585
     23 C          66.1756   92.4492   15.5740 C.3     1  UNL1        0.0175
     24 C          66.8384   93.4079   14.6298 C.3     1  UNL1        0.0199
     25 C          66.0013   93.4886   13.3877 C.3     1  UNL1        0.0855
     26 N          64.8211   92.5797   13.5643 N.3     1  UNL1       -0.2971
     27 H          64.8248   91.8627   12.8388 H       1  UNL1        0.1233
     28 C          66.2931   94.3303   12.1810 C.3     1  UNL1        0.1470
     29 O          65.8491   95.7626   12.1403 O.3     1  UNL1       -0.3787
     30 H          66.1151   96.1597   11.2963 H       1  UNL1        0.2108
     31 C          67.0289   93.7399   11.0148 C.ar    1  UNL1        0.0055
     32 C          67.5459   92.3338   11.0882 C.ar    1  UNL1       -0.0019
     33 C          68.2817   91.7434    9.9219 C.ar    1  UNL1       -0.0002
     34 C          68.5004   92.5591    8.6823 C.ar    1  UNL1       -0.0000
     35 C          67.9834   93.9653    8.6089 C.ar    1  UNL1       -0.0002
     36 C          67.2477   94.5557    9.7751 C.ar    1  UNL1       -0.0019
@<TRIPOS>BOND
     1     7     8    2
     2     8     9   am
     3     9     1    1
     4     1     2   ar
     5     2     3   ar
     6     3     4   ar
     7     4    21    1
     8    22    21    1
     9    22    23    1
    10    23    24    1
    11    25    24    1
    12    25    28    1
    13    28    29    1
    14    28    31    1
    15    31    32   ar
    16    32    33   ar
    17    33    34   ar
    18    34    35   ar
    19    35    36   ar
    20    25    26    1
    21     4     5   ar
    22     5     6   ar
    23    11     8    1
    24    11    12    1
    25    12    13    1
    26    13    14    1
    27    14    15   ar
    28    15    16   ar
    29    16    17   ar
    30    17    18   ar
    31    18    19    2
    32    18    20   ar
    33     6     1   ar
    34    20    11    1
    35    26    22    1
    36    20    14   ar
    37    36    31   ar
    38     9    10    1
    39    29    30    1
    40    26    27    1
@<TRIPOS>MOLECULE
*****
 36 40 0 0 0
SMALL
GASTEIGER

@<TRIPOS>ATOM
      1 C          60.6344   87.0472    9.1037 C.ar    1  UNL1        0.0503
      2 C          60.8391   88.5200    9.3007 C.ar    1  UNL1        0.0143
      3 C          60.1500   89.5003    8.3984 C.ar    1  UNL1       -0.0029
      4 C          59.2563   89.0077    7.2991 C.ar    1  UNL1       -0.0208
      5 C          59.0517   87.5349    7.1020 C.ar    1  UNL1       -0.0029
      6 C          59.7407   86.5545    8.0044 C.ar    1  UNL1        0.0143
      7 O          63.1264   85.6546    8.1814 O.2     1  UNL1       -0.2727
      8 C          62.5695   85.3705    9.5448 C.2     1  UNL1        0.2469
      9 N          61.3235   86.0669   10.0061 N.am    1  UNL1       -0.2824
     10 H          60.9579   85.8804   10.9010 H       1  UNL1        0.1549
     11 C          63.2586   84.3902   10.4472 C.3     1  UNL1        0.1662
     12 C          63.7387   83.0228   10.0606 C.3     1  UNL1        0.0400
     13 C          64.3653   82.3927   11.2690 C.3     1  UNL1        0.0665
     14 C          64.2725   83.3708   12.4025 C.ar    1  UNL1        0.1229
     15 N          64.7223   83.2967   13.8315 N.ar    1  UNL1       -0.2306
     16 C          64.4882   84.4572   14.7526 C.ar    1  UNL1        0.1051
     17 C          63.8042   85.6918   14.2446 C.ar    1  UNL1        0.0814
     18 C          63.3543   85.7658   12.8156 C.ar    1  UNL1        0.2637
     19 O          62.6703   87.0004   12.3077 O.2     1  UNL1       -0.2669
     20 N          63.5884   84.6053   11.8946 N.ar    1  UNL1       -0.2773
     21 C          58.5672   89.9880    6.3967 C.3     1  UNL1        0.0420
     22 C          59.3691   90.8139    5.4349 C.3     1  UNL1        0.0585
     23 C          58.9206   92.0855    4.7778 C.3     1  UNL1        0.0175
     24 C          60.0345   92.5708    3.8982 C.3     1  UNL1        0.0199
     25 C          61.1715   91.5990    4.0117 C.3     1  UNL1        0.0855
     26 N          60.7603   90.5132    4.9614 N.3     1  UNL1       -0.2971
     27 H          61.3988   90.4886    5.7565 H       1  UNL1        0.1233
     28 C          62.4885   91.6960    3.3004 C.3     1  UNL1        0.1470
     29 O          63.6869   90.9722    3.8389 O.3     1  UNL1       -0.3787
     30 H          64.4506   91.1392    3.2647 H       1  UNL1        0.2108
     31 C          62.6073   92.5167    2.0505 C.ar    1  UNL1        0.0055
     32 C          63.7158   93.5179    1.9132 C.ar    1  UNL1       -0.0019
     33 C          63.8346   94.3387    0.6633 C.ar    1  UNL1       -0.0002
     34 C          62.8448   94.1582   -0.4493 C.ar    1  UNL1       -0.0000
     35 C          61.7363   93.1570   -0.3120 C.ar    1  UNL1       -0.0002
     36 C          61.6175   92.3363    0.9378 C.ar    1  UNL1       -0.0019
@<TRIPOS>BOND
     1     7     8    2
     2     8     9   am
     3     9     1    1
     4     1     2   ar
     5     2     3   ar
     6     3     4   ar
     7     4    21    1
     8    22    21    1
     9    22    23    1
    10    23    24    1
    11    25    24    1
    12    25    28    1
    13    28    29    1
    14    28    31    1
    15    31    32   ar
    16    32    33   ar
    17    33    34   ar
    18    34    35   ar
    19    35    36   ar
    20    25    26    1
    21     4     5   ar
    22     5     6   ar
    23    11     8    1
    24    11    12    1
    25    12    13    1
    26    13    14    1
    27    14    15   ar
    28    15    16   ar
    29    16    17   ar
    30    17    18   ar
    31    18    19    2
    32    18    20   ar
    33     6     1   ar
    34    20    11    1
    35    26    22    1
    36    20    14   ar
    37    36    31   ar
    38     9    10    1
    39    29    30    1
    40    26    27    1
@<TRIPOS>MOLECULE
*****
 36 40 0 0 0
SMALL
GASTEIGER

@<TRIPOS>ATOM
      1 C          63.6186   86.5409   15.2301 C.ar    1  UNL1        0.0503
      2 C          64.2859   87.3606   14.1658 C.ar    1  UNL1        0.0143
      3 C          64.4538   88.8394   14.3530 C.ar    1  UNL1       -0.0029
      4 C          63.9543   89.4983   15.6045 C.ar    1  UNL1       -0.0208
      5 C          63.2869   88.6786   16.6687 C.ar    1  UNL1       -0.0029
      6 C          63.1190   87.1998   16.4815 C.ar    1  UNL1        0.0143
      7 O          62.0796   85.4917   12.8784 O.2     1  UNL1       -0.2727
      8 C          62.6812   84.5375   13.8670 C.2     1  UNL1        0.2469
      9 N          63.4507   85.0621   15.0429 N.am    1  UNL1       -0.2824
     10 H          63.8456   84.4358   15.6918 H       1  UNL1        0.1549
     11 C          62.5133   83.0587   13.6798 C.3     1  UNL1        0.1662
     12 C          61.9881   82.0946   14.7019 C.3     1  UNL1        0.0400
     13 C          61.9914   80.7245   14.0914 C.3     1  UNL1        0.0665
     14 C          62.5186   80.8418   12.6920 C.ar    1  UNL1        0.1229
     15 N          62.7467   79.8213   11.6165 N.ar    1  UNL1       -0.2306
     16 C          63.2973   80.2435   10.2867 C.ar    1  UNL1        0.1051
     17 C          63.6199   81.6862   10.0323 C.ar    1  UNL1        0.0814
     18 C          63.3918   82.7066   11.1078 C.ar    1  UNL1        0.2637
     19 O          63.7144   84.1493   10.8534 O.2     1  UNL1       -0.2669
     20 N          62.8412   82.2844   12.4376 N.ar    1  UNL1       -0.2773
     21 C          64.1221   90.9771   15.7917 C.3     1  UNL1        0.0420
     22 C          65.1442   91.7238   14.9868 C.3     1  UNL1        0.0585
     23 C          66.6250   91.7263   15.2264 C.3     1  UNL1        0.0175
     24 C          67.2610   92.6030   14.1887 C.3     1  UNL1        0.0199
     25 C          66.1733   93.1424   13.3078 C.3     1  UNL1        0.0855
     26 N          64.8650   92.5990   13.8011 N.3     1  UNL1       -0.2971
     27 H          64.4177   92.0525   13.0651 H       1  UNL1        0.1233
     28 C          66.3609   94.0635   12.1389 C.3     1  UNL1        0.1470
     29 O          65.8208   95.4619   12.1917 O.3     1  UNL1       -0.3787
     30 H          66.0265   95.9196   11.3616 H       1  UNL1        0.2108
     31 C          67.0884   93.5862   10.9171 C.ar    1  UNL1        0.0055
     32 C          67.2828   94.5099    9.7513 C.ar    1  UNL1       -0.0019
     33 C          68.0104   94.0326    8.5295 C.ar    1  UNL1       -0.0002
     34 C          68.5436   92.6317    8.4735 C.ar    1  UNL1       -0.0000
     35 C          68.3492   91.7081    9.6393 C.ar    1  UNL1       -0.0002
     36 C          67.6217   92.1853   10.8611 C.ar    1  UNL1       -0.0019
@<TRIPOS>BOND
     1     7     8    2
     2     8     9   am
     3     9     1    1
     4     1     2   ar
     5     2     3   ar
     6     3     4   ar
     7     4    21    1
     8    22    21    1
     9    22    23    1
    10    23    24    1
    11    25    24    1
    12    25    28    1
    13    28    29    1
    14    28    31    1
    15    31    32   ar
    16    32    33   ar
    17    33    34   ar
    18    34    35   ar
    19    35    36   ar
    20    25    26    1
    21     4     5   ar
    22     5     6   ar
    23    11     8    1
    24    11    12    1
    25    12    13    1
    26    13    14    1
    27    14    15   ar
    28    15    16   ar
    29    16    17   ar
    30    17    18   ar
    31    18    19    2
    32    18    20   ar
    33     6     1   ar
    34    20    11    1
    35    26    22    1
    36    20    14   ar
    37    36    31   ar
    38     9    10    1
    39    29    30    1
    40    26    27    1
@<TRIPOS>MOLECULE
*****
 36 40 0 0 0
SMALL
GASTEIGER

@<TRIPOS>ATOM
      1 C          59.6395   92.4069    4.0779 C.ar    1  UNL1        0.0503
      2 C          58.2521   92.0508    4.5230 C.ar    1  UNL1        0.0143
      3 C          58.0362   90.8909    5.4493 C.ar    1  UNL1       -0.0029
      4 C          59.2077   90.0872    5.9304 C.ar    1  UNL1       -0.0208
      5 C          60.5951   90.4433    5.4853 C.ar    1  UNL1       -0.0029
      6 C          60.8111   91.6032    4.5590 C.ar    1  UNL1        0.0143
      7 O          60.1044   91.9248    1.1536 O.2     1  UNL1       -0.2727
      8 C          60.0880   93.3257    1.6893 C.2     1  UNL1        0.2469
      9 N          59.8555   93.5668    3.1515 N.am    1  UNL1       -0.2824
     10 H          59.8447   94.4863    3.5032 H       1  UNL1        0.1549
     11 C          60.3039   94.4856    0.7630 C.3     1  UNL1        0.1662
     12 C          59.2612   95.4719    0.3273 C.3     1  UNL1        0.0400
     13 C          59.9134   96.4587   -0.5952 C.3     1  UNL1        0.0665
     14 C          61.3591   96.0821   -0.7297 C.ar    1  UNL1        0.1229
     15 N          62.4870   96.6921   -1.5080 N.ar    1  UNL1       -0.2306
     16 C          63.8562   96.0826   -1.4468 C.ar    1  UNL1        0.1051
     17 C          64.0975   94.8632   -0.6074 C.ar    1  UNL1        0.0814
     18 C          62.9697   94.2532    0.1709 C.ar    1  UNL1        0.2637
     19 O          63.2110   93.0337    1.0104 O.2     1  UNL1       -0.2669
     20 N          61.6005   94.8627    0.1098 N.ar    1  UNL1       -0.2773
     21 C          58.9918   88.9273    6.8568 C.3     1  UNL1        0.0420
     22 C          59.8472   88.7748    8.0795 C.3     1  UNL1        0.0585
     23 C          60.7410   87.6111    8.3908 C.3     1  UNL1        0.0175
     24 C          61.4052   87.8763    9.7093 C.3     1  UNL1        0.0199
     25 C          60.9218   89.2039   10.2130 C.3     1  UNL1        0.0855
     26 N          59.9589   89.7593    9.2057 N.3     1  UNL1       -0.2971
     27 H          60.3040   90.6517    8.8524 H       1  UNL1        0.1233
     28 C          61.3296   89.8609   11.4983 C.3     1  UNL1        0.1470
     29 O          60.4503   89.7514   12.7086 O.3     1  UNL1       -0.3787
     30 H          60.8574   90.2289   13.4483 H       1  UNL1        0.2108
     31 C          62.6168   90.6275   11.5733 C.ar    1  UNL1        0.0055
     32 C          63.3643   90.7129   12.8710 C.ar    1  UNL1       -0.0019
     33 C          64.6514   91.4795   12.9460 C.ar    1  UNL1       -0.0002
     34 C          65.1910   92.1607   11.7234 C.ar    1  UNL1       -0.0000
     35 C          64.4435   92.0753   10.4258 C.ar    1  UNL1       -0.0002
     36 C          63.1564   91.3087   10.3506 C.ar    1  UNL1       -0.0019
@<TRIPOS>BOND
     1     7     8    2
     2     8     9   am
     3     9     1    1
     4     1     2   ar
     5     2     3   ar
     6     3     4   ar
     7     4    21    1
     8    22    21    1
     9    22    23    1
    10    23    24    1
    11    25    24    1
    12    25    28    1
    13    28    29    1
    14    28    31    1
    15    31    32   ar
    16    32    33   ar
    17    33    34   ar
    18    34    35   ar
    19    35    36   ar
    20    25    26    1
    21     4     5   ar
    22     5     6   ar
    23    11     8    1
    24    11    12    1
    25    12    13    1
    26    13    14    1
    27    14    15   ar
    28    15    16   ar
    29    16    17   ar
    30    17    18   ar
    31    18    19    2
    32    18    20   ar
    33     6     1   ar
    34    20    11    1
    35    26    22    1
    36    20    14   ar
    37    36    31   ar
    38     9    10    1
    39    29    30    1
    40    26    27    1
@<TRIPOS>MOLECULE
*****
 36 40 0 0 0
SMALL
GASTEIGER

@<TRIPOS>ATOM
      1 C          63.8315   86.4100   13.8271 C.ar    1  UNL1        0.0503
      2 C          63.5068   87.4029   12.7506 C.ar    1  UNL1        0.0143
      3 C          63.5977   88.8730   13.0340 C.ar    1  UNL1       -0.0029
      4 C          64.0134   89.3503   14.3939 C.ar    1  UNL1       -0.0208
      5 C          64.3380   88.3575   15.4704 C.ar    1  UNL1       -0.0029
      6 C          64.2471   86.8873   15.1870 C.ar    1  UNL1        0.0143
      7 O          61.5549   84.8056   14.9418 O.2     1  UNL1       -0.2727
      8 C          62.6022   84.1376   14.1011 C.2     1  UNL1        0.2469
      9 N          63.7406   84.9399   13.5437 N.am    1  UNL1       -0.2824
     10 H          64.4280   84.5015   12.9919 H       1  UNL1        0.1549
     11 C          62.5112   82.6674   13.8177 C.3     1  UNL1        0.1662
     12 C          62.1360   81.6010   14.8036 C.3     1  UNL1        0.0400
     13 C          62.1724   80.2801   14.0938 C.3     1  UNL1        0.0665
     14 C          62.5702   80.5301   12.6693 C.ar    1  UNL1        0.1229
     15 N          62.7688   79.6048   11.5055 N.ar    1  UNL1       -0.2306
     16 C          63.1768   80.1551   10.1711 C.ar    1  UNL1        0.1051
     17 C          63.3862   81.6305   10.0004 C.ar    1  UNL1        0.0814
     18 C          63.1876   82.5558   11.1642 C.ar    1  UNL1        0.2637
     19 O          63.3970   84.0313   10.9936 O.2     1  UNL1       -0.2669
     20 N          62.7796   82.0056   12.4986 N.ar    1  UNL1       -0.2773
     21 C          64.1043   90.8205   14.6774 C.3     1  UNL1        0.0420
     22 C          65.1763   91.6446   14.0280 C.3     1  UNL1        0.0585
     23 C          66.1365   92.5562   14.7330 C.3     1  UNL1        0.0175
     24 C          67.0299   93.1767   13.7003 C.3     1  UNL1        0.0199
     25 C          66.6219   92.6487   12.3569 C.3     1  UNL1        0.0855
     26 N          65.4763   91.7018   12.5594 N.3     1  UNL1       -0.2971
     27 H          65.7306   90.7735   12.2216 H       1  UNL1        0.1233
     28 C          67.2493   93.0050   11.0418 C.3     1  UNL1        0.1470
     29 O          68.2449   92.0777   10.4101 O.3     1  UNL1       -0.3787
     30 H          68.5508   92.4551    9.5705 H       1  UNL1        0.2108
     31 C          66.8812   94.2885   10.3584 C.ar    1  UNL1        0.0055
     32 C          67.7375   94.8187    9.2468 C.ar    1  UNL1       -0.0019
     33 C          67.3693   96.1022    8.5634 C.ar    1  UNL1       -0.0002
     34 C          66.1449   96.8555    8.9915 C.ar    1  UNL1       -0.0000
     35 C          65.2886   96.3252   10.1031 C.ar    1  UNL1       -0.0002
     36 C          65.6567   95.0418   10.7865 C.ar    1  UNL1       -0.0019
@<TRIPOS>BOND
     1     7     8    2
     2     8     9   am
     3     9     1    1
     4     1     2   ar
     5     2     3   ar
     6     3     4   ar
     7     4    21    1
     8    22    21    1
     9    22    23    1
    10    23    24    1
    11    25    24    1
    12    25    28    1
    13    28    29    1
    14    28    31    1
    15    31    32   ar
    16    32    33   ar
    17    33    34   ar
    18    34    35   ar
    19    35    36   ar
    20    25    26    1
    21     4     5   ar
    22     5     6   ar
    23    11     8    1
    24    11    12    1
    25    12    13    1
    26    13    14    1
    27    14    15   ar
    28    15    16   ar
    29    16    17   ar
    30    17    18   ar
    31    18    19    2
    32    18    20   ar
    33     6     1   ar
    34    20    11    1
    35    26    22    1
    36    20    14   ar
    37    36    31   ar
    38     9    10    1
    39    29    30    1
    40    26    27    1
@<TRIPOS>MOLECULE
*****
 36 40 0 0 0
SMALL
GASTEIGER

@<TRIPOS>ATOM
      1 C          59.6984   92.3419    4.0629 C.ar    1  UNL1        0.0503
      2 C          60.8606   91.5681    4.6110 C.ar    1  UNL1        0.0143
      3 C          60.6246   90.4392    5.5702 C.ar    1  UNL1       -0.0029
      4 C          59.2264   90.0843    5.9813 C.ar    1  UNL1       -0.0208
      5 C          58.0642   90.8582    5.4332 C.ar    1  UNL1       -0.0029
      6 C          58.3002   91.9870    4.4740 C.ar    1  UNL1        0.0143
      7 O          61.7381   92.0554    1.8818 O.2     1  UNL1       -0.2727
      8 C          60.9543   93.3275    2.0131 C.2     1  UNL1        0.2469
      9 N          59.9343   93.4707    3.1037 N.am    1  UNL1       -0.2824
     10 H          59.4198   94.3057    3.1899 H       1  UNL1        0.1549
     11 C          61.1902   94.4563    1.0539 C.3     1  UNL1        0.1662
     12 C          61.8499   95.7642    1.3767 C.3     1  UNL1        0.0400
     13 C          61.8753   96.5916    0.1258 C.3     1  UNL1        0.0665
     14 C          61.2314   95.7950   -0.9701 C.ar    1  UNL1        0.1229
     15 N          60.9759   96.1009   -2.4161 N.ar    1  UNL1       -0.2306
     16 C          60.2970   95.0870   -3.2886 C.ar    1  UNL1        0.1051
     17 C          59.8736   93.7673   -2.7149 C.ar    1  UNL1        0.0814
     18 C          60.1291   93.4614   -1.2689 C.ar    1  UNL1        0.2637
     19 O          59.7058   92.1417   -0.6952 O.2     1  UNL1       -0.2669
     20 N          60.8080   94.4753   -0.3964 N.ar    1  UNL1       -0.2773
     21 C          58.9904   88.9555    6.9405 C.3     1  UNL1        0.0420
     22 C          59.8711   88.7978    8.1444 C.3     1  UNL1        0.0585
     23 C          60.7755   87.6354    8.4291 C.3     1  UNL1        0.0175
     24 C          61.4655   87.8939    9.7356 C.3     1  UNL1        0.0199
     25 C          60.9876   89.2161   10.2585 C.3     1  UNL1        0.0855
     26 N          60.0022   89.7748    9.2751 N.3     1  UNL1       -0.2971
     27 H          60.3366   90.6710    8.9211 H       1  UNL1        0.1233
     28 C          61.4192   89.8657   11.5397 C.3     1  UNL1        0.1470
     29 O          60.5740   89.7297   12.7715 O.3     1  UNL1       -0.3787
     30 H          60.9932   90.2056   13.5054 H       1  UNL1        0.2108
     31 C          62.6960   90.6514   11.5894 C.ar    1  UNL1        0.0055
     32 C          63.2129   91.3216   10.3510 C.ar    1  UNL1       -0.0019
     33 C          64.4897   92.1073   10.4006 C.ar    1  UNL1       -0.0002
     34 C          65.2496   92.2228   11.6887 C.ar    1  UNL1       -0.0000
     35 C          64.7327   91.5526   12.9271 C.ar    1  UNL1       -0.0002
     36 C          63.4560   90.7669   12.8775 C.ar    1  UNL1       -0.0019
@<TRIPOS>BOND
     1     7     8    2
     2     8     9   am
     3     9     1    1
     4     1     2   ar
     5     2     3   ar
     6     3     4   ar
     7     4    21    1
     8    22    21    1
     9    22    23    1
    10    23    24    1
    11    25    24    1
    12    25    28    1
    13    28    29    1
    14    28    31    1
    15    31    32   ar
    16    32    33   ar
    17    33    34   ar
    18    34    35   ar
    19    35    36   ar
    20    25    26    1
    21     4     5   ar
    22     5     6   ar
    23    11     8    1
    24    11    12    1
    25    12    13    1
    26    13    14    1
    27    14    15   ar
    28    15    16   ar
    29    16    17   ar
    30    17    18   ar
    31    18    19    2
    32    18    20   ar
    33     6     1   ar
    34    20    11    1
    35    26    22    1
    36    20    14   ar
    37    36    31   ar
    38     9    10    1
    39    29    30    1
    40    26    27    1
@<TRIPOS>MOLECULE
*****
 36 40 0 0 0
SMALL
GASTEIGER

@<TRIPOS>ATOM
      1 C          63.7223   86.5908   13.3458 C.ar    1  UNL1        0.0503
      2 C          63.1635   87.5526   12.3395 C.ar    1  UNL1        0.0143
      3 C          63.2021   89.0275   12.6099 C.ar    1  UNL1       -0.0029
      4 C          63.7995   89.5406   13.8865 C.ar    1  UNL1       -0.0208
      5 C          64.3583   88.5788   14.8928 C.ar    1  UNL1       -0.0029
      6 C          64.3197   87.1038   14.6225 C.ar    1  UNL1        0.0143
      7 O          62.6993   85.5742   10.7153 O.2     1  UNL1       -0.2727
      8 C          63.1721   84.6075   11.7602 C.2     1  UNL1        0.2469
      9 N          63.6837   85.1158   13.0755 N.am    1  UNL1       -0.2824
     10 H          63.9941   84.4814   13.7614 H       1  UNL1        0.1549
     11 C          63.1335   83.1326   11.4899 C.3     1  UNL1        0.1662
     12 C          63.5776   82.4557   10.2271 C.3     1  UNL1        0.0400
     13 C          63.3626   80.9804   10.3917 C.3     1  UNL1        0.0665
     14 C          62.7856   80.7454   11.7562 C.ar    1  UNL1        0.1229
     15 N          62.3709   79.4921   12.4684 N.ar    1  UNL1       -0.2306
     16 C          61.8146   79.5690   13.8592 C.ar    1  UNL1        0.1051
     17 C          61.6730   80.8992   14.5379 C.ar    1  UNL1        0.0814
     18 C          62.0877   82.1524   13.8258 C.ar    1  UNL1        0.2637
     19 O          61.9462   83.4826   14.5045 O.2     1  UNL1       -0.2669
     20 N          62.6441   82.0756   12.4349 N.ar    1  UNL1       -0.2773
     21 C          63.8382   91.0155   14.1569 C.3     1  UNL1        0.0420
     22 C          64.9863   91.8401   13.6550 C.3     1  UNL1        0.0585
     23 C          65.9458   92.6232   14.5013 C.3     1  UNL1        0.0175
     24 C          66.9290   93.2935   13.5881 C.3     1  UNL1        0.0199
     25 C          66.5772   92.9247   12.1774 C.3     1  UNL1        0.0855
     26 N          65.3765   92.0265   12.2187 N.3     1  UNL1       -0.2971
     27 H          65.6050   91.1239   11.8022 H       1  UNL1        0.1233
     28 C          67.2992   93.3751   10.9421 C.3     1  UNL1        0.1470
     29 O          68.5452   92.6658   10.5011 O.3     1  UNL1       -0.3787
     30 H          68.8835   93.0796    9.6916 H       1  UNL1        0.2108
     31 C          66.7753   94.5347   10.1479 C.ar    1  UNL1        0.0055
     32 C          65.6009   95.3197   10.6523 C.ar    1  UNL1       -0.0019
     33 C          65.0770   96.4793    9.8580 C.ar    1  UNL1       -0.0002
     34 C          65.7276   96.8538    8.5593 C.ar    1  UNL1       -0.0000
     35 C          66.9020   96.0688    8.0549 C.ar    1  UNL1       -0.0002
     36 C          67.4259   94.9092    8.8491 C.ar    1  UNL1       -0.0019
@<TRIPOS>BOND
     1     7     8    2
     2     8     9   am
     3     9     1    1
     4     1     2   ar
     5     2     3   ar
     6     3     4   ar
     7     4    21    1
     8    22    21    1
     9    22    23    1
    10    23    24    1
    11    25    24    1
    12    25    28    1
    13    28    29    1
    14    28    31    1
    15    31    32   ar
    16    32    33   ar
    17    33    34   ar
    18    34    35   ar
    19    35    36   ar
    20    25    26    1
    21     4     5   ar
    22     5     6   ar
    23    11     8    1
    24    11    12    1
    25    12    13    1
    26    13    14    1
    27    14    15   ar
    28    15    16   ar
    29    16    17   ar
    30    17    18   ar
    31    18    19    2
    32    18    20   ar
    33     6     1   ar
    34    20    11    1
    35    26    22    1
    36    20    14   ar
    37    36    31   ar
    38     9    10    1
    39    29    30    1
    40    26    27    1
@<TRIPOS>MOLECULE
*****
 36 40 0 0 0
SMALL
GASTEIGER

@<TRIPOS>ATOM
      1 C          60.6379   87.0343    9.0787 C.ar    1  UNL1        0.0503
      2 C          59.7947   86.5518    7.9358 C.ar    1  UNL1        0.0143
      3 C          59.1284   87.5405    7.0256 C.ar    1  UNL1       -0.0029
      4 C          59.3052   89.0117    7.2584 C.ar    1  UNL1       -0.0208
      5 C          60.1484   89.4942    8.4013 C.ar    1  UNL1       -0.0029
      6 C          60.8147   88.5055    9.3115 C.ar    1  UNL1        0.0143
      7 O          63.1656   85.6681    8.2160 O.2     1  UNL1       -0.2727
      8 C          62.5682   85.3625    9.5575 C.2     1  UNL1        0.2469
      9 N          61.3043   86.0456    9.9888 N.am    1  UNL1       -0.2824
     10 H          60.9121   85.8450   10.8693 H       1  UNL1        0.1549
     11 C          63.2346   84.3738   10.4676 C.3     1  UNL1        0.1662
     12 C          63.6895   82.9952   10.0901 C.3     1  UNL1        0.0400
     13 C          64.2991   82.3595   11.3043 C.3     1  UNL1        0.0665
     14 C          64.2209   83.3452   12.4323 C.ar    1  UNL1        0.1229
     15 N          64.6637   83.2700   13.8634 N.ar    1  UNL1       -0.2306
     16 C          64.4486   84.4397   14.7774 C.ar    1  UNL1        0.1051
     17 C          63.7907   85.6845   14.2604 C.ar    1  UNL1        0.0814
     18 C          63.3479   85.7598   12.8292 C.ar    1  UNL1        0.2637
     19 O          62.6899   87.0047   12.3122 O.2     1  UNL1       -0.2669
     20 N          63.5629   84.5901   11.9152 N.ar    1  UNL1       -0.2773
     21 C          58.6389   90.0005    6.3483 C.3     1  UNL1        0.0420
     22 C          59.4594   90.7994    5.3795 C.3     1  UNL1        0.0585
     23 C          60.9171   90.6018    5.0858 C.3     1  UNL1        0.0175
     24 C          61.3249   91.6164    4.0592 C.3     1  UNL1        0.0199
     25 C          60.1193   92.4412    3.7182 C.3     1  UNL1        0.0855
     26 N          58.9663   91.9363    4.5342 N.3     1  UNL1       -0.2971
     27 H          58.2217   91.6115    3.9175 H       1  UNL1        0.1233
     28 C          60.0744   93.5723    2.7341 C.3     1  UNL1        0.1470
     29 O          60.0381   94.9902    3.2223 O.3     1  UNL1       -0.3787
     30 H          60.0115   95.5931    2.4628 H       1  UNL1        0.2108
     31 C          60.0659   93.2857    1.2618 C.ar    1  UNL1        0.0055
     32 C          61.3522   92.9956    0.5467 C.ar    1  UNL1       -0.0019
     33 C          61.3437   92.7089   -0.9256 C.ar    1  UNL1       -0.0002
     34 C          60.0489   92.7123   -1.6828 C.ar    1  UNL1       -0.0000
     35 C          58.7626   93.0024   -0.9678 C.ar    1  UNL1       -0.0002
     36 C          58.7711   93.2891    0.5045 C.ar    1  UNL1       -0.0019
@<TRIPOS>BOND
     1     7     8    2
     2     8     9   am
     3     9     1    1
     4     1     2   ar
     5     2     3   ar
     6     3     4   ar
     7     4    21    1
     8    22    21    1
     9    22    23    1
    10    23    24    1
    11    25    24    1
    12    25    28    1
    13    28    29    1
    14    28    31    1
    15    31    32   ar
    16    32    33   ar
    17    33    34   ar
    18    34    35   ar
    19    35    36   ar
    20    25    26    1
    21     4     5   ar
    22     5     6   ar
    23    11     8    1
    24    11    12    1
    25    12    13    1
    26    13    14    1
    27    14    15   ar
    28    15    16   ar
    29    16    17   ar
    30    17    18   ar
    31    18    19    2
    32    18    20   ar
    33     6     1   ar
    34    20    11    1
    35    26    22    1
    36    20    14   ar
    37    36    31   ar
    38     9    10    1
    39    29    30    1
    40    26    27    1
@<TRIPOS>MOLECULE
*****
 36 40 0 0 0
SMALL
GASTEIGER

@<TRIPOS>ATOM
      1 C          60.6168   92.2136    3.5556 C.ar    1  UNL1        0.0503
      2 C          61.3721   91.2189    4.3863 C.ar    1  UNL1        0.0143
      3 C          60.6529   90.4073    5.4227 C.ar    1  UNL1       -0.0029
      4 C          59.1784   90.5904    5.6282 C.ar    1  UNL1       -0.0208
      5 C          58.4231   91.5850    4.7974 C.ar    1  UNL1       -0.0029
      6 C          59.1423   92.3967    3.7611 C.ar    1  UNL1        0.0143
      7 O          63.3921   91.4486    2.7114 O.2     1  UNL1       -0.2727
      8 C          62.7238   92.6427    2.0972 C.2     1  UNL1        0.2469
      9 N          61.3361   93.0252    2.5193 N.am    1  UNL1       -0.2824
     10 H          60.8974   93.8089    2.1161 H       1  UNL1        0.1549
     11 C          63.4430   93.4543    1.0608 C.3     1  UNL1        0.1662
     12 C          64.7340   94.1920    1.2584 C.3     1  UNL1        0.0400
     13 C          65.0863   94.8644   -0.0353 C.3     1  UNL1        0.0665
     14 C          64.0131   94.5422   -1.0325 C.ar    1  UNL1        0.1229
     15 N          63.8294   94.9298   -2.4699 N.ar    1  UNL1       -0.2306
     16 C          62.6301   94.4459   -3.2297 C.ar    1  UNL1        0.1051
     17 C          61.6144   93.5744   -2.5522 C.ar    1  UNL1        0.0814
     18 C          61.7981   93.1868   -1.1149 C.ar    1  UNL1        0.2637
     19 O          60.7824   92.3154   -0.4374 O.2     1  UNL1       -0.2669
     20 N          62.9974   93.6707   -0.3550 N.ar    1  UNL1       -0.2773
     21 C          58.4591   89.7787    6.6645 C.3     1  UNL1        0.0420
     22 C          59.2009   88.7380    7.4498 C.3     1  UNL1        0.0585
     23 C          59.0097   87.2537    7.3476 C.3     1  UNL1        0.0175
     24 C          59.9547   86.5972    8.3098 C.3     1  UNL1        0.0199
     25 C          60.7300   87.6757    9.0068 C.3     1  UNL1        0.0855
     26 N          60.2641   88.9989    8.4753 N.3     1  UNL1       -0.2971
     27 H          61.0456   89.4938    8.0454 H       1  UNL1        0.1233
     28 C          61.7858   87.4678   10.0517 C.3     1  UNL1        0.1470
     29 O          62.2946   88.6339   10.8463 O.3     1  UNL1       -0.3787
     30 H          62.9685   88.3284   11.4735 H       1  UNL1        0.2108
     31 C          62.3328   86.0937   10.3022 C.ar    1  UNL1        0.0055
     32 C          63.0007   85.3384    9.1916 C.ar    1  UNL1       -0.0019
     33 C          63.5477   83.9643    9.4422 C.ar    1  UNL1       -0.0002
     34 C          63.4268   83.3456   10.8033 C.ar    1  UNL1       -0.0000
     35 C          62.7590   84.1010   11.9138 C.ar    1  UNL1       -0.0002
     36 C          62.2119   85.4750   11.6634 C.ar    1  UNL1       -0.0019
@<TRIPOS>BOND
     1     7     8    2
     2     8     9   am
     3     9     1    1
     4     1     2   ar
     5     2     3   ar
     6     3     4   ar
     7     4    21    1
     8    22    21    1
     9    22    23    1
    10    23    24    1
    11    25    24    1
    12    25    28    1
    13    28    29    1
    14    28    31    1
    15    31    32   ar
    16    32    33   ar
    17    33    34   ar
    18    34    35   ar
    19    35    36   ar
    20    25    26    1
    21     4     5   ar
    22     5     6   ar
    23    11     8    1
    24    11    12    1
    25    12    13    1
    26    13    14    1
    27    14    15   ar
    28    15    16   ar
    29    16    17   ar
    30    17    18   ar
    31    18    19    2
    32    18    20   ar
    33     6     1   ar
    34    20    11    1
    35    26    22    1
    36    20    14   ar
    37    36    31   ar
    38     9    10    1
    39    29    30    1
    40    26    27    1
