@<TRIPOS>MOLECULE
*****
 30 33 0 0 0
SMALL
GASTEIGER

@<TRIPOS>ATOM
      1 C          64.1201   89.5327   14.8770 C.ar    1  UNL1        0.1232
      2 C          64.3351   88.0499   14.8052 C.ar    1  UNL1        0.1181
      3 N          63.5557   87.4141   15.9180 N.ar    1  UNL1       -0.2208
      4 N          62.8591   88.5039   16.6776 N.ar    1  UNL1       -0.0633
      5 N          63.2079   89.8133   16.0342 N.ar    1  UNL1       -0.1287
      6 C          65.8993   92.6005   12.1071 C.ar    1  UNL1        0.0651
      7 C          64.6121   91.9205   11.7455 C.ar    1  UNL1        0.0176
      8 C          64.0191   90.8979   12.6688 C.ar    1  UNL1        0.0031
      9 C          64.7132   90.5553   13.9537 C.ar    1  UNL1        0.0211
     10 C          66.0004   91.2354   14.3152 C.ar    1  UNL1        0.0031
     11 C          66.5934   92.2579   13.3919 C.ar    1  UNL1        0.0176
     12 C          68.1180   92.0292    9.7831 C.3     1  UNL1        0.0722
     13 C          67.5122   93.3605   10.1156 C.ar    1  UNL1        0.1247
     14 N          67.8199   94.6630    9.4382 N.ar    1  UNL1       -0.2290
     15 C          66.9902   95.7307   10.0877 C.ar    1  UNL1        0.1192
     16 C          66.1698   95.0880   11.1665 C.ar    1  UNL1        0.1019
     17 N          66.4924   93.6232   11.1837 N.ar    1  UNL1       -0.2923
     18 C          63.4854   85.9462   16.2185 C.3     1  UNL1        0.2139
     19 C          63.7197   84.9450   15.1264 C.2     1  UNL1        0.2511
     20 O          64.9528   84.0910   15.1436 O.2     1  UNL1       -0.2726
     21 N          62.7208   84.7977   14.0170 N.am    1  UNL1       -0.2816
     22 H          61.9115   85.3582   14.0057 H       1  UNL1        0.1549
     23 C          62.9551   83.7965   12.9249 C.ar    1  UNL1        0.0619
     24 C          63.5072   84.2434   11.6037 C.ar    1  UNL1        0.0156
     25 C          63.7414   83.2422   10.5115 C.ar    1  UNL1        0.0022
     26 C          63.4236   81.7942   10.7407 C.ar    1  UNL1        0.0123
     27 C          62.8715   81.3474   12.0618 C.ar    1  UNL1        0.0694
     28 CL         62.5536   79.8995   12.2909 Cl      1  UNL1       -0.0813
     29 C          62.6372   82.3486   13.1539 C.ar    1  UNL1        0.0816
     30 CL         62.0852   81.9019   14.4752 Cl      1  UNL1       -0.0801
@<TRIPOS>BOND
     1    12    13    1
     2    13    14   ar
     3    14    15   ar
     4    15    16   ar
     5    16    17   ar
     6    17     6    1
     7     6     7   ar
     8     7     8   ar
     9     8     9   ar
    10     9     1    1
    11     1     2   ar
    12     2     3   ar
    13     3    18    1
    14    18    19    1
    15    19    20    2
    16    19    21   am
    17    21    23    1
    18    23    24   ar
    19    24    25   ar
    20    25    26   ar
    21    26    27   ar
    22    27    28    1
    23    27    29   ar
    24    29    30    1
    25     3     4   ar
    26     4     5   ar
    27     9    10   ar
    28    10    11   ar
    29    17    13   ar
    30    11     6   ar
    31     5     1   ar
    32    29    23   ar
    33    21    22    1
@<TRIPOS>MOLECULE
*****
 30 33 0 0 0
SMALL
GASTEIGER

@<TRIPOS>ATOM
      1 C          64.0982   89.7206   14.9302 C.ar    1  UNL1        0.1232
      2 C          64.3148   88.2364   14.9394 C.ar    1  UNL1        0.1181
      3 N          63.5082   87.6571   16.0636 N.ar    1  UNL1       -0.2208
      4 N          62.7930   88.7835   16.7492 N.ar    1  UNL1       -0.0633
      5 N          63.1577   90.0588   16.0487 N.ar    1  UNL1       -0.1287
      6 C          65.9459   92.6454   12.0524 C.ar    1  UNL1        0.0651
      7 C          66.6327   92.3333   13.3489 C.ar    1  UNL1        0.0176
      8 C          66.0168   91.3584   14.3081 C.ar    1  UNL1        0.0031
      9 C          64.7141   90.6956   13.9709 C.ar    1  UNL1        0.0211
     10 C          64.0273   91.0077   12.6744 C.ar    1  UNL1        0.0031
     11 C          64.6432   91.9826   11.7152 C.ar    1  UNL1        0.0176
     12 C          68.1589   91.9426    9.7593 C.3     1  UNL1        0.0722
     13 C          67.5789   93.2973   10.0391 C.ar    1  UNL1        0.1247
     14 N          67.9143   94.5668    9.3140 N.ar    1  UNL1       -0.2290
     15 C          67.1044   95.6746    9.9198 C.ar    1  UNL1        0.1192
     16 C          66.2685   95.0896   11.0194 C.ar    1  UNL1        0.1019
     17 N          66.5617   93.6204   11.0931 N.ar    1  UNL1       -0.2923
     18 C          63.4303   86.2064   16.4367 C.3     1  UNL1        0.2139
     19 C          63.6256   85.1510   15.3888 C.2     1  UNL1        0.2511
     20 O          65.0107   84.7712   14.9558 O.2     1  UNL1       -0.2726
     21 N          62.4359   84.4753   14.7740 N.am    1  UNL1       -0.2816
     22 H          61.5269   84.7245   15.0582 H       1  UNL1        0.1549
     23 C          62.6312   83.4199   13.7262 C.ar    1  UNL1        0.0619
     24 C          62.4055   81.9761   14.0648 C.ar    1  UNL1        0.0156
     25 C          62.6008   80.9207   13.0169 C.ar    1  UNL1        0.0022
     26 C          63.0219   81.3091   11.6305 C.ar    1  UNL1        0.0123
     27 C          63.2476   82.7528   11.2920 C.ar    1  UNL1        0.0694
     28 CL         63.6686   83.1411    9.9057 Cl      1  UNL1       -0.0813
     29 C          63.0523   83.8082   12.3398 C.ar    1  UNL1        0.0816
     30 CL         63.2780   85.2520   12.0014 Cl      1  UNL1       -0.0801
@<TRIPOS>BOND
     1    12    13    1
     2    13    14   ar
     3    14    15   ar
     4    15    16   ar
     5    16    17   ar
     6    17     6    1
     7     6     7   ar
     8     7     8   ar
     9     8     9   ar
    10     9     1    1
    11     1     2   ar
    12     2     3   ar
    13     3    18    1
    14    18    19    1
    15    19    20    2
    16    19    21   am
    17    21    23    1
    18    23    24   ar
    19    24    25   ar
    20    25    26   ar
    21    26    27   ar
    22    27    28    1
    23    27    29   ar
    24    29    30    1
    25     3     4   ar
    26     4     5   ar
    27     9    10   ar
    28    10    11   ar
    29    17    13   ar
    30    11     6   ar
    31     5     1   ar
    32    29    23   ar
    33    21    22    1
@<TRIPOS>MOLECULE
*****
 30 33 0 0 0
SMALL
GASTEIGER

@<TRIPOS>ATOM
      1 C          64.0861   89.2190   14.7099 C.ar    1  UNL1        0.1232
      2 C          65.1614   90.1981   14.3421 C.ar    1  UNL1        0.1181
      3 N          64.9497   91.4441   15.1499 N.ar    1  UNL1       -0.2208
      4 N          63.7436   91.2351   16.0169 N.ar    1  UNL1       -0.0633
      5 N          63.2099   89.8599   15.7450 N.ar    1  UNL1       -0.1287
      6 C          63.5783   85.0848   13.0068 C.ar    1  UNL1        0.0651
      7 C          63.0859   86.2770   12.2413 C.ar    1  UNL1        0.0176
      8 C          63.2552   87.6550   12.8089 C.ar    1  UNL1        0.0031
      9 C          63.9169   87.8408   14.1422 C.ar    1  UNL1        0.0211
     10 C          64.4093   86.6486   14.9078 C.ar    1  UNL1        0.0031
     11 C          64.2400   85.2706   14.3401 C.ar    1  UNL1        0.0176
     12 C          62.1716   82.5513   14.5077 C.3     1  UNL1        0.0722
     13 C          62.7625   82.5422   13.1290 C.ar    1  UNL1        0.1247
     14 N          62.8105   81.3670   12.1981 N.ar    1  UNL1       -0.2290
     15 C          63.4868   81.8051   10.9329 C.ar    1  UNL1        0.1192
     16 C          63.8567   83.2511   11.0819 C.ar    1  UNL1        0.1019
     17 N          63.4091   83.7066   12.4391 N.ar    1  UNL1       -0.2923
     18 C          65.7956   92.6818   15.0995 C.3     1  UNL1        0.2139
     19 C          66.5490   93.0250   13.8487 C.2     1  UNL1        0.2511
     20 O          68.0462   93.1135   13.8754 O.2     1  UNL1       -0.2726
     21 N          65.8053   93.2796   12.5712 N.am    1  UNL1       -0.2816
     22 H          64.8227   93.2214   12.5536 H       1  UNL1        0.1549
     23 C          66.5587   93.6227   11.3203 C.ar    1  UNL1        0.0619
     24 C          67.2493   92.5431   10.5408 C.ar    1  UNL1        0.0156
     25 C          68.0027   92.8862    9.2899 C.ar    1  UNL1        0.0022
     26 C          68.0655   94.3089    8.8187 C.ar    1  UNL1        0.0123
     27 C          67.3750   95.3885    9.5981 C.ar    1  UNL1        0.0694
     28 CL         67.4378   96.8111    9.1269 Cl      1  UNL1       -0.0813
     29 C          66.6216   95.0453   10.8490 C.ar    1  UNL1        0.0816
     30 CL         65.9310   96.1248   11.6286 Cl      1  UNL1       -0.0801
@<TRIPOS>BOND
     1    12    13    1
     2    13    14   ar
     3    14    15   ar
     4    15    16   ar
     5    16    17   ar
     6    17     6    1
     7     6     7   ar
     8     7     8   ar
     9     8     9   ar
    10     9     1    1
    11     1     2   ar
    12     2     3   ar
    13     3    18    1
    14    18    19    1
    15    19    20    2
    16    19    21   am
    17    21    23    1
    18    23    24   ar
    19    24    25   ar
    20    25    26   ar
    21    26    27   ar
    22    27    28    1
    23    27    29   ar
    24    29    30    1
    25     3     4   ar
    26     4     5   ar
    27     9    10   ar
    28    10    11   ar
    29    17    13   ar
    30    11     6   ar
    31     5     1   ar
    32    29    23   ar
    33    21    22    1
@<TRIPOS>MOLECULE
*****
 30 33 0 0 0
SMALL
GASTEIGER

@<TRIPOS>ATOM
      1 C          64.0448   89.2550   14.6420 C.ar    1  UNL1        0.1232
      2 C          65.2332   90.1542   14.4706 C.ar    1  UNL1        0.1181
      3 N          64.9586   91.4310   15.2083 N.ar    1  UNL1       -0.2208
      4 N          63.6005   91.3211   15.8355 N.ar    1  UNL1       -0.0633
      5 N          63.0358   89.9763   15.4856 N.ar    1  UNL1       -0.1287
      6 C          63.5872   85.1201   12.9264 C.ar    1  UNL1        0.0651
      7 C          63.0559   86.3060   12.1772 C.ar    1  UNL1        0.0176
      8 C          63.2084   87.6843   12.7491 C.ar    1  UNL1        0.0031
      9 C          63.8923   87.8767   14.0701 C.ar    1  UNL1        0.0211
     10 C          64.4236   86.6908   14.8194 C.ar    1  UNL1        0.0031
     11 C          64.2711   85.3126   14.2475 C.ar    1  UNL1        0.0176
     12 C          62.2090   82.5660   14.4186 C.3     1  UNL1        0.0722
     13 C          62.8012   82.5678   13.0405 C.ar    1  UNL1        0.1247
     14 N          62.8639   81.3959   12.1063 N.ar    1  UNL1       -0.2290
     15 C          63.5362   81.8457   10.8429 C.ar    1  UNL1        0.1192
     16 C          63.8889   83.2955   10.9965 C.ar    1  UNL1        0.1019
     17 N          63.4347   83.7418   12.3546 N.ar    1  UNL1       -0.2923
     18 C          65.8803   92.6107   15.3022 C.3     1  UNL1        0.2139
     19 C          66.5211   93.1624   14.0631 C.2     1  UNL1        0.2511
     20 O          68.0113   93.3202   13.9961 O.2     1  UNL1       -0.2726
     21 N          65.6716   93.5562   12.8912 N.am    1  UNL1       -0.2816
     22 H          64.6936   93.4526   12.9353 H       1  UNL1        0.1549
     23 C          66.3124   94.1079   11.6522 C.ar    1  UNL1        0.0619
     24 C          66.1899   95.5680   11.3311 C.ar    1  UNL1        0.0156
     25 C          66.8306   96.1197   10.0921 C.ar    1  UNL1        0.0022
     26 C          67.5938   95.2112    9.1743 C.ar    1  UNL1        0.0123
     27 C          67.7163   93.7512    9.4954 C.ar    1  UNL1        0.0694
     28 CL         68.4795   92.8428    8.5776 Cl      1  UNL1       -0.0813
     29 C          67.0756   93.1995   10.7344 C.ar    1  UNL1        0.0816
     30 CL         67.1980   91.7394   11.0557 Cl      1  UNL1       -0.0801
@<TRIPOS>BOND
     1    12    13    1
     2    13    14   ar
     3    14    15   ar
     4    15    16   ar
     5    16    17   ar
     6    17     6    1
     7     6     7   ar
     8     7     8   ar
     9     8     9   ar
    10     9     1    1
    11     1     2   ar
    12     2     3   ar
    13     3    18    1
    14    18    19    1
    15    19    20    2
    16    19    21   am
    17    21    23    1
    18    23    24   ar
    19    24    25   ar
    20    25    26   ar
    21    26    27   ar
    22    27    28    1
    23    27    29   ar
    24    29    30    1
    25     3     4   ar
    26     4     5   ar
    27     9    10   ar
    28    10    11   ar
    29    17    13   ar
    30    11     6   ar
    31     5     1   ar
    32    29    23   ar
    33    21    22    1
@<TRIPOS>MOLECULE
*****
 30 33 0 0 0
SMALL
GASTEIGER

@<TRIPOS>ATOM
      1 C          63.7607   88.6943   13.4123 C.ar    1  UNL1        0.1232
      2 C          64.8683   89.3705   14.1646 C.ar    1  UNL1        0.1181
      3 N          64.7095   90.8519   13.9910 N.ar    1  UNL1       -0.2208
      4 N          63.5037   91.0913   13.1314 N.ar    1  UNL1       -0.0633
      5 N          62.9173   89.7578   12.7737 N.ar    1  UNL1       -0.1287
      6 C          63.0864   84.2546   13.1221 C.ar    1  UNL1        0.0651
      7 C          63.8991   84.8175   14.2501 C.ar    1  UNL1        0.0176
      8 C          64.1238   86.2974   14.3468 C.ar    1  UNL1        0.0031
      9 C          63.5359   87.2143   13.3155 C.ar    1  UNL1        0.0211
     10 C          62.7231   86.6513   12.1875 C.ar    1  UNL1        0.0031
     11 C          62.4984   85.1715   12.0908 C.ar    1  UNL1        0.0176
     12 C          63.9867   82.3357   10.6407 C.3     1  UNL1        0.0722
     13 C          63.2754   81.8927   11.8848 C.ar    1  UNL1        0.1247
     14 N          62.8531   80.4898   12.2067 N.ar    1  UNL1       -0.2290
     15 C          62.1782   80.5047   13.5463 C.ar    1  UNL1        0.1192
     16 C          62.1834   81.9168   14.0522 C.ar    1  UNL1        0.1019
     17 N          62.8616   82.7746   13.0253 N.ar    1  UNL1       -0.2923
     18 C          65.6001   91.9085   14.5745 C.3     1  UNL1        0.2139
     19 C          66.1948   92.9619   13.6876 C.2     1  UNL1        0.2511
     20 O          67.4434   93.6791   14.1081 O.2     1  UNL1       -0.2726
     21 N          65.5409   93.2981   12.3802 N.am    1  UNL1       -0.2816
     22 H          64.7214   92.8275   12.1042 H       1  UNL1        0.1549
     23 C          66.1355   94.3516   11.4932 C.ar    1  UNL1        0.0619
     24 C          66.0071   95.8005   11.8596 C.ar    1  UNL1        0.0156
     25 C          66.6018   96.8539   10.9726 C.ar    1  UNL1        0.0022
     26 C          67.3248   96.4583    9.7193 C.ar    1  UNL1        0.0123
     27 C          67.4533   95.0095    9.3529 C.ar    1  UNL1        0.0694
     28 CL         68.1763   94.6140    8.0996 Cl      1  UNL1       -0.0813
     29 C          66.8586   93.9561   10.2399 C.ar    1  UNL1        0.0816
     30 CL         66.9870   92.5072    9.8736 Cl      1  UNL1       -0.0801
@<TRIPOS>BOND
     1    12    13    1
     2    13    14   ar
     3    14    15   ar
     4    15    16   ar
     5    16    17   ar
     6    17     6    1
     7     6     7   ar
     8     7     8   ar
     9     8     9   ar
    10     9     1    1
    11     1     2   ar
    12     2     3   ar
    13     3    18    1
    14    18    19    1
    15    19    20    2
    16    19    21   am
    17    21    23    1
    18    23    24   ar
    19    24    25   ar
    20    25    26   ar
    21    26    27   ar
    22    27    28    1
    23    27    29   ar
    24    29    30    1
    25     3     4   ar
    26     4     5   ar
    27     9    10   ar
    28    10    11   ar
    29    17    13   ar
    30    11     6   ar
    31     5     1   ar
    32    29    23   ar
    33    21    22    1
