@<TRIPOS>MOLECULE
*****
 34 38 0 0 0
SMALL
GASTEIGER

@<TRIPOS>ATOM
      1 C          60.2848   90.5900    5.7067 C.ar    1  UNL1        0.1317
      2 C          58.8783   91.0249    5.4195 C.ar    1  UNL1        0.0346
      3 C          58.5943   91.9218    4.2512 C.ar    1  UNL1        0.0121
      4 C          59.7168   92.3837    3.3700 C.ar    1  UNL1        0.1076
      5 C          61.1233   91.9488    3.6572 C.ar    1  UNL1        0.1080
      6 N          61.4073   91.0519    4.8255 N.ar    1  UNL1       -0.2289
      7 C          61.7049   86.1057   11.5483 C.3     1  UNL1        0.0055
      8 C          62.1006   87.5516   11.5991 C.3     1  UNL1        0.0004
      9 C          61.8166   88.4485   10.4308 C.3     1  UNL1        0.0001
     10 C          61.1369   87.8994    9.2116 C.3     1  UNL1        0.0033
     11 C          60.7411   86.4535    9.1608 C.3     1  UNL1        0.0001
     12 C          61.0252   85.5566   10.3291 C.3     1  UNL1        0.0004
     13 C          60.4571   87.3503    7.9925 C.3     1  UNL1        0.0215
     14 C          60.1731   88.2472    6.8242 C.3     1  UNL1        0.0922
     15 N          60.5688   89.6931    6.8750 N.pl3   1  UNL1       -0.2932
     16 C          61.2486   90.2422    8.0942 C.3     1  UNL1        0.0922
     17 C          61.5326   89.3453    9.2625 C.3     1  UNL1        0.0215
     18 C          61.9889   85.2088   12.7166 C.3     1  UNL1        0.0417
     19 O          63.8336   86.1633   14.2775 O.co2   1  UNL1       -0.5492
     20 C          63.3746   85.1352   13.2862 C.2     1  UNL1        0.0503
     21 O          64.3013   84.0337   12.8646 O.co2   1  UNL1       -0.5492
     22 C          59.4328   93.2805    2.2017 C.2     1  UNL1        0.3767
     23 N          58.7239   92.8868    0.9398 N.2     1  UNL1       -0.0308
     24 C          58.6608   94.0915    0.0483 C.2     1  UNL1        0.2320
     25 C          58.0799   94.2990   -1.3190 C.2     1  UNL1        0.0537
     26 C          58.1689   95.6449   -1.9752 C.2     1  UNL1        0.0714
     27 C          58.8387   96.7832   -1.2642 C.2     1  UNL1       -0.0133
     28 C          59.4196   96.5757    0.1030 C.3     1  UNL1        0.1037
     29 C          59.3306   95.2299    0.7593 C.2     1  UNL1        0.2178
     30 N          59.8077   94.7286    2.0901 N.2     1  UNL1       -0.0347
     31 C          57.5880   95.8524   -3.3426 C.3     1  UNL1        0.4184
     32 F          57.0072   96.0600   -4.7099 F       1  UNL1       -0.1659
     33 F          58.6609   96.8558   -3.6460 F       1  UNL1       -0.1659
     34 F          56.5151   94.8491   -3.0392 F       1  UNL1       -0.1659
@<TRIPOS>UNITY_ATOM_ATTR
19 1
charge -1
@<TRIPOS>BOND
     1    19    20   ar
     2    20    21   ar
     3    20    18    1
     4    18     7    1
     5     7     8    1
     6     8     9    1
     7     9    10    1
     8    10    11    1
     9    11    12    1
    10    10    13    1
    11    13    14    1
    12    14    15    1
    13    15     1    1
    14     1     2   ar
    15     2     3   ar
    16     3     4   ar
    17     4    22    1
    18    22    23    2
    19    23    24    1
    20    24    25    2
    21    25    26    1
    22    26    31    1
    23    31    32    1
    24    31    33    1
    25    31    34    1
    26    26    27    2
    27    27    28    1
    28    28    29    1
    29    29    30    2
    30     4     5   ar
    31     5     6   ar
    32    15    16    1
    33    16    17    1
    34    12     7    1
    35     6     1   ar
    36    17    10    1
    37    30    22    1
    38    29    24    1
@<TRIPOS>MOLECULE
*****
 34 38 0 0 0
SMALL
GASTEIGER

@<TRIPOS>ATOM
      1 C          59.5763   92.3591    2.9905 C.ar    1  UNL1        0.1317
      2 C          60.9819   91.9821    3.3538 C.ar    1  UNL1        0.0346
      3 C          61.2528   91.2326    4.6246 C.ar    1  UNL1        0.0121
      4 C          60.1181   90.8602    5.5322 C.ar    1  UNL1        0.1076
      5 C          58.7124   91.2373    5.1689 C.ar    1  UNL1        0.1080
      6 N          58.4415   91.9867    3.8981 N.ar    1  UNL1       -0.2289
      7 C          58.2217   96.1063   -3.3635 C.3     1  UNL1        0.0055
      8 C          57.7699   94.6831   -3.2212 C.3     1  UNL1        0.0004
      9 C          58.0408   93.9337   -1.9504 C.3     1  UNL1        0.0001
     10 C          58.7635   94.6075   -0.8219 C.3     1  UNL1        0.0033
     11 C          59.2153   96.0307   -0.9641 C.3     1  UNL1        0.0001
     12 C          58.9444   96.7801   -2.2349 C.3     1  UNL1        0.0004
     13 C          59.4862   95.2812    0.3067 C.3     1  UNL1        0.0215
     14 C          59.7571   94.5318    1.5775 C.3     1  UNL1        0.0922
     15 N          59.3053   93.1086    1.7197 N.pl3   1  UNL1       -0.2932
     16 C          58.5826   92.4348    0.5912 C.3     1  UNL1        0.0922
     17 C          58.3117   93.1842   -0.6796 C.3     1  UNL1        0.0215
     18 C          57.9508   96.8558   -4.6343 C.3     1  UNL1        0.0417
     19 O          57.0962   95.7992   -6.8486 O.co2   1  UNL1       -0.5492
     20 C          56.8153   96.4409   -5.5222 C.2     1  UNL1        0.0503
     21 O          55.3989   96.6676   -5.0837 O.co2   1  UNL1       -0.5492
     22 C          60.3890   90.1108    6.8030 C.2     1  UNL1        0.3767
     23 N          61.5592   90.3201    7.7176 N.2     1  UNL1       -0.0308
     24 C          61.4307   89.3591    8.8622 C.2     1  UNL1        0.2320
     25 C          62.2902   89.1117   10.0664 C.2     1  UNL1        0.0537
     26 C          61.8999   88.0611   11.0632 C.2     1  UNL1        0.0714
     27 C          60.6502   87.2578   10.8559 C.2     1  UNL1       -0.0133
     28 C          59.7907   87.5052    9.6518 C.3     1  UNL1        0.1037
     29 C          60.1810   88.5559    8.6549 C.2     1  UNL1        0.2178
     30 N          59.5372   89.0204    7.3822 N.2     1  UNL1       -0.0347
     31 C          62.7594   87.8136   12.2675 C.3     1  UNL1        0.4184
     32 F          63.6189   87.5662   13.4717 F       1  UNL1       -0.1659
     33 F          62.7793   86.3474   11.9520 F       1  UNL1       -0.1659
     34 F          62.7395   89.2799   12.5830 F       1  UNL1       -0.1659
@<TRIPOS>UNITY_ATOM_ATTR
19 1
charge -1
@<TRIPOS>BOND
     1    19    20   ar
     2    20    21   ar
     3    20    18    1
     4    18     7    1
     5     7     8    1
     6     8     9    1
     7     9    10    1
     8    10    11    1
     9    11    12    1
    10    10    13    1
    11    13    14    1
    12    14    15    1
    13    15     1    1
    14     1     2   ar
    15     2     3   ar
    16     3     4   ar
    17     4    22    1
    18    22    23    2
    19    23    24    1
    20    24    25    2
    21    25    26    1
    22    26    31    1
    23    31    32    1
    24    31    33    1
    25    31    34    1
    26    26    27    2
    27    27    28    1
    28    28    29    1
    29    29    30    2
    30     4     5   ar
    31     5     6   ar
    32    15    16    1
    33    16    17    1
    34    12     7    1
    35     6     1   ar
    36    17    10    1
    37    30    22    1
    38    29    24    1
@<TRIPOS>MOLECULE
*****
 34 38 0 0 0
SMALL
GASTEIGER

@<TRIPOS>ATOM
      1 C          59.5317   92.2877    3.0991 C.ar    1  UNL1        0.1317
      2 C          60.8998   91.8083    3.4842 C.ar    1  UNL1        0.0346
      3 C          61.0957   91.0471    4.7618 C.ar    1  UNL1        0.0121
      4 C          59.9235   90.7652    5.6541 C.ar    1  UNL1        0.1076
      5 C          58.5554   91.2445    5.2689 C.ar    1  UNL1        0.1080
      6 N          58.3595   92.0058    3.9914 N.ar    1  UNL1       -0.2289
      7 C          58.5524   96.0941   -3.2886 C.3     1  UNL1        0.0055
      8 C          59.3983   96.6723   -2.1932 C.3     1  UNL1        0.0004
      9 C          59.5942   95.9110   -0.9156 C.3     1  UNL1        0.0001
     10 C          58.9441   94.5715   -0.7335 C.3     1  UNL1        0.0033
     11 C          58.0982   93.9933   -1.8290 C.3     1  UNL1        0.0001
     12 C          57.9023   94.7546   -3.1065 C.3     1  UNL1        0.0004
     13 C          58.2940   93.2321   -0.5514 C.3     1  UNL1        0.0215
     14 C          58.4899   92.4708    0.7261 C.3     1  UNL1        0.0922
     15 N          59.3359   93.0490    1.8215 N.pl3   1  UNL1       -0.2932
     16 C          59.9859   94.3884    1.6394 C.3     1  UNL1        0.0922
     17 C          59.7901   95.1497    0.3619 C.3     1  UNL1        0.0215
     18 C          58.3565   96.8554   -4.5662 C.3     1  UNL1        0.0417
     19 O          59.9357   96.3105   -6.5560 O.co2   1  UNL1       -0.5492
     20 C          58.6003   96.1831   -5.8847 C.2     1  UNL1        0.0503
     21 O          57.5087   95.3835   -6.5321 O.co2   1  UNL1       -0.5492
     22 C          60.1193   90.0039    6.9317 C.2     1  UNL1        0.3767
     23 N          60.8218   88.6862    7.0740 N.2     1  UNL1       -0.0308
     24 C          60.7838   88.2946    8.5215 C.2     1  UNL1        0.2320
     25 C          61.3164   87.0975    9.2517 C.2     1  UNL1        0.0537
     26 C          61.1230   86.9761   10.7342 C.2     1  UNL1        0.0714
     27 C          60.3970   88.0517   11.4864 C.2     1  UNL1       -0.0133
     28 C          59.8644   89.2488   10.7562 C.3     1  UNL1        0.1037
     29 C          60.0578   89.3702    9.2738 C.2     1  UNL1        0.2178
     30 N          59.6471   90.4266    8.2912 N.2     1  UNL1       -0.0347
     31 C          61.6557   85.7789   11.4645 C.3     1  UNL1        0.4184
     32 F          62.1883   84.5819   12.1948 F       1  UNL1       -0.1659
     33 F          62.2549   86.6795   12.5036 F       1  UNL1       -0.1659
     34 F          61.0565   84.8783   10.4253 F       1  UNL1       -0.1659
@<TRIPOS>UNITY_ATOM_ATTR
19 1
charge -1
@<TRIPOS>BOND
     1    19    20   ar
     2    20    21   ar
     3    20    18    1
     4    18     7    1
     5     7     8    1
     6     8     9    1
     7     9    10    1
     8    10    11    1
     9    11    12    1
    10    10    13    1
    11    13    14    1
    12    14    15    1
    13    15     1    1
    14     1     2   ar
    15     2     3   ar
    16     3     4   ar
    17     4    22    1
    18    22    23    2
    19    23    24    1
    20    24    25    2
    21    25    26    1
    22    26    31    1
    23    31    32    1
    24    31    33    1
    25    31    34    1
    26    26    27    2
    27    27    28    1
    28    28    29    1
    29    29    30    2
    30     4     5   ar
    31     5     6   ar
    32    15    16    1
    33    16    17    1
    34    12     7    1
    35     6     1   ar
    36    17    10    1
    37    30    22    1
    38    29    24    1
@<TRIPOS>MOLECULE
*****
 34 38 0 0 0
SMALL
GASTEIGER

@<TRIPOS>ATOM
      1 C          61.6740   92.6157    1.8122 C.ar    1  UNL1        0.1317
      2 C          62.6305   91.6581    2.4587 C.ar    1  UNL1        0.0346
      3 C          62.2439   90.9515    3.7241 C.ar    1  UNL1        0.0121
      4 C          60.9007   91.2024    4.3429 C.ar    1  UNL1        0.1076
      5 C          59.9442   92.1600    3.6964 C.ar    1  UNL1        0.1080
      6 N          60.3309   92.8667    2.4310 N.ar    1  UNL1       -0.2289
      7 C          63.6072   96.1491   -4.5146 C.3     1  UNL1        0.0055
      8 C          64.5810   96.0611   -3.3771 C.3     1  UNL1        0.0004
      9 C          64.1943   95.3544   -2.1118 C.3     1  UNL1        0.0001
     10 C          62.8339   94.7357   -1.9839 C.3     1  UNL1        0.0033
     11 C          61.8601   94.8238   -3.1213 C.3     1  UNL1        0.0001
     12 C          62.2467   95.5304   -4.3867 C.3     1  UNL1        0.0004
     13 C          61.4734   94.1171   -1.8560 C.3     1  UNL1        0.0215
     14 C          61.0868   93.4104   -0.5906 C.3     1  UNL1        0.0922
     15 N          62.0606   93.3224    0.5468 N.pl3   1  UNL1       -0.2932
     16 C          63.4211   93.9410    0.4190 C.3     1  UNL1        0.0922
     17 C          63.8077   94.6477   -0.8464 C.3     1  UNL1        0.0215
     18 C          63.9938   96.8558   -5.7799 C.3     1  UNL1        0.0417
     19 O          64.3140   94.9046   -7.4654 O.co2   1  UNL1       -0.5492
     20 C          64.8284   96.1508   -6.8077 C.2     1  UNL1        0.0503
     21 O          66.1776   96.6919   -7.1779 O.co2   1  UNL1       -0.5492
     22 C          60.5141   90.4957    5.6083 C.2     1  UNL1        0.3767
     23 N          60.8001   90.9662    7.0036 N.2     1  UNL1       -0.0308
     24 C          60.2363   89.9557    7.9582 C.2     1  UNL1        0.2320
     25 C          60.2187   89.8912    9.4566 C.2     1  UNL1        0.0537
     26 C          59.5667   88.7318   10.1498 C.2     1  UNL1        0.0714
     27 C          58.9323   87.6368    9.3444 C.2     1  UNL1       -0.0133
     28 C          58.9499   87.7013    7.8459 C.3     1  UNL1        0.1037
     29 C          59.6019   88.8608    7.1528 C.2     1  UNL1        0.2178
     30 N          59.7736   89.1945    5.7005 N.2     1  UNL1       -0.0347
     31 C          59.5490   88.6672   11.6483 C.3     1  UNL1        0.4184
     32 F          59.5314   88.6027   13.1468 F       1  UNL1       -0.1659
     33 F          58.9201   90.0280   11.6995 F       1  UNL1       -0.1659
     34 F          60.1780   87.3064   11.5972 F       1  UNL1       -0.1659
@<TRIPOS>UNITY_ATOM_ATTR
19 1
charge -1
@<TRIPOS>BOND
     1    19    20   ar
     2    20    21   ar
     3    20    18    1
     4    18     7    1
     5     7     8    1
     6     8     9    1
     7     9    10    1
     8    10    11    1
     9    11    12    1
    10    10    13    1
    11    13    14    1
    12    14    15    1
    13    15     1    1
    14     1     2   ar
    15     2     3   ar
    16     3     4   ar
    17     4    22    1
    18    22    23    2
    19    23    24    1
    20    24    25    2
    21    25    26    1
    22    26    31    1
    23    31    32    1
    24    31    33    1
    25    31    34    1
    26    26    27    2
    27    27    28    1
    28    28    29    1
    29    29    30    2
    30     4     5   ar
    31     5     6   ar
    32    15    16    1
    33    16    17    1
    34    12     7    1
    35     6     1   ar
    36    17    10    1
    37    30    22    1
    38    29    24    1
@<TRIPOS>MOLECULE
*****
 34 38 0 0 0
SMALL
GASTEIGER

@<TRIPOS>ATOM
      1 C          60.2524   90.6266    5.7855 C.ar    1  UNL1        0.1317
      2 C          61.3404   90.8977    4.7892 C.ar    1  UNL1        0.0346
      3 C          61.0710   91.7788    3.6056 C.ar    1  UNL1        0.0121
      4 C          59.7135   92.3889    3.4182 C.ar    1  UNL1        0.1076
      5 C          58.6255   92.1178    4.4145 C.ar    1  UNL1        0.1080
      6 N          58.8949   91.2366    5.5981 N.ar    1  UNL1       -0.2289
      7 C          61.5995   86.2207   11.7036 C.3     1  UNL1        0.0055
      8 C          60.8502   85.6808   10.5217 C.3     1  UNL1        0.0004
      9 C          60.5808   86.5619    9.3381 C.3     1  UNL1        0.0001
     10 C          61.0607   87.9831    9.3363 C.3     1  UNL1        0.0033
     11 C          61.8099   88.5230   10.5183 C.3     1  UNL1        0.0001
     12 C          62.0793   87.6419   11.7019 C.3     1  UNL1        0.0004
     13 C          61.5405   89.4042    9.3346 C.3     1  UNL1        0.0215
     14 C          61.2711   90.2854    8.1510 C.3     1  UNL1        0.0922
     15 N          60.5218   89.7454    6.9691 N.pl3   1  UNL1       -0.2932
     16 C          60.0420   88.3242    6.9708 C.3     1  UNL1        0.0922
     17 C          60.3114   87.4431    8.1544 C.3     1  UNL1        0.0215
     18 C          61.8689   85.3396   12.8872 C.3     1  UNL1        0.0417
     19 O          64.2802   84.8609   13.7279 O.co2   1  UNL1       -0.5492
     20 C          63.0873   84.4649   12.9092 C.2     1  UNL1        0.0503
     21 O          63.1128   83.1942   12.1126 O.co2   1  UNL1       -0.5492
     22 C          59.4441   93.2700    2.2346 C.2     1  UNL1        0.3767
     23 N          58.8606   92.8321    0.9240 N.2     1  UNL1       -0.0308
     24 C          58.7667   94.0352    0.0332 C.2     1  UNL1        0.2320
     25 C          58.2706   94.2075   -1.3719 C.2     1  UNL1        0.0537
     26 C          58.3001   95.5614   -2.0169 C.2     1  UNL1        0.0714
     27 C          58.8256   96.7430   -1.2569 C.2     1  UNL1       -0.0133
     28 C          59.3217   96.5707    0.1482 C.3     1  UNL1        0.1037
     29 C          59.2923   95.2168    0.7932 C.2     1  UNL1        0.2178
     30 N          59.7109   94.7439    2.1537 N.2     1  UNL1       -0.0347
     31 C          57.8040   95.7337   -3.4220 C.3     1  UNL1        0.4184
     32 F          57.3079   95.9061   -4.8270 F       1  UNL1       -0.1659
     33 F          56.4496   96.1087   -2.8977 F       1  UNL1       -0.1659
     34 F          59.1584   95.3588   -3.9463 F       1  UNL1       -0.1659
@<TRIPOS>UNITY_ATOM_ATTR
19 1
charge -1
@<TRIPOS>BOND
     1    19    20   ar
     2    20    21   ar
     3    20    18    1
     4    18     7    1
     5     7     8    1
     6     8     9    1
     7     9    10    1
     8    10    11    1
     9    11    12    1
    10    10    13    1
    11    13    14    1
    12    14    15    1
    13    15     1    1
    14     1     2   ar
    15     2     3   ar
    16     3     4   ar
    17     4    22    1
    18    22    23    2
    19    23    24    1
    20    24    25    2
    21    25    26    1
    22    26    31    1
    23    31    32    1
    24    31    33    1
    25    31    34    1
    26    26    27    2
    27    27    28    1
    28    28    29    1
    29    29    30    2
    30     4     5   ar
    31     5     6   ar
    32    15    16    1
    33    16    17    1
    34    12     7    1
    35     6     1   ar
    36    17    10    1
    37    30    22    1
    38    29    24    1
@<TRIPOS>MOLECULE
*****
 34 38 0 0 0
SMALL
GASTEIGER

@<TRIPOS>ATOM
      1 C          60.2258   92.3450    2.4268 C.ar    1  UNL1        0.1317
      2 C          61.4512   91.7225    3.0275 C.ar    1  UNL1        0.0346
      3 C          61.3775   91.0727    4.3775 C.ar    1  UNL1        0.0121
      4 C          60.0783   91.0454    5.1267 C.ar    1  UNL1        0.1076
      5 C          58.8529   91.6679    4.5260 C.ar    1  UNL1        0.1080
      6 N          58.9267   92.3176    3.1760 N.ar    1  UNL1       -0.2289
      7 C          60.5945   95.5938   -4.3229 C.3     1  UNL1        0.0055
      8 C          61.5493   94.4930   -3.9673 C.3     1  UNL1        0.0004
      9 C          61.4756   93.8433   -2.6173 C.3     1  UNL1        0.0001
     10 C          60.4470   94.2943   -1.6230 C.3     1  UNL1        0.0033
     11 C          59.4922   95.3950   -1.9787 C.3     1  UNL1        0.0001
     12 C          59.5659   96.0448   -3.3287 C.3     1  UNL1        0.0004
     13 C          59.4185   94.7453   -0.6288 C.3     1  UNL1        0.0215
     14 C          59.3447   94.0955    0.7212 C.3     1  UNL1        0.0922
     15 N          60.2996   92.9947    1.0769 N.pl3   1  UNL1       -0.2932
     16 C          61.3281   92.5437    0.0826 C.3     1  UNL1        0.0922
     17 C          61.4019   93.1935   -1.2674 C.3     1  UNL1        0.0215
     18 C          60.6683   96.2436   -5.6729 C.3     1  UNL1        0.0417
     19 O          60.6784   94.3514   -7.4532 O.co2   1  UNL1       -0.5492
     20 C          60.0441   95.5754   -6.8620 C.2     1  UNL1        0.0503
     21 O          58.7857   96.1312   -7.4598 O.co2   1  UNL1       -0.5492
     22 C          60.0046   90.3956    6.4766 C.2     1  UNL1        0.3767
     23 N          59.9527   91.1073    7.7961 N.2     1  UNL1       -0.0308
     24 C          59.8858   90.0716    8.8791 C.2     1  UNL1        0.2320
     25 C          59.8167   90.1848   10.3732 C.2     1  UNL1        0.0537
     26 C          59.7581   88.9462   11.2172 C.2     1  UNL1        0.0714
     27 C          59.7687   87.5944   10.5671 C.2     1  UNL1       -0.0133
     28 C          59.8378   87.4813    9.0730 C.3     1  UNL1        0.1037
     29 C          59.8964   88.7198    8.2290 C.2     1  UNL1        0.2178
     30 N          59.9698   88.9201    6.7442 N.2     1  UNL1       -0.0347
     31 C          59.6890   89.0594   12.7114 C.3     1  UNL1        0.4184
     32 F          59.6198   89.1725   14.2055 F       1  UNL1       -0.1659
     33 F          58.2977   88.4993   12.6893 F       1  UNL1       -0.1659
     34 F          61.0803   89.6194   12.7334 F       1  UNL1       -0.1659
@<TRIPOS>UNITY_ATOM_ATTR
19 1
charge -1
@<TRIPOS>BOND
     1    19    20   ar
     2    20    21   ar
     3    20    18    1
     4    18     7    1
     5     7     8    1
     6     8     9    1
     7     9    10    1
     8    10    11    1
     9    11    12    1
    10    10    13    1
    11    13    14    1
    12    14    15    1
    13    15     1    1
    14     1     2   ar
    15     2     3   ar
    16     3     4   ar
    17     4    22    1
    18    22    23    2
    19    23    24    1
    20    24    25    2
    21    25    26    1
    22    26    31    1
    23    31    32    1
    24    31    33    1
    25    31    34    1
    26    26    27    2
    27    27    28    1
    28    28    29    1
    29    29    30    2
    30     4     5   ar
    31     5     6   ar
    32    15    16    1
    33    16    17    1
    34    12     7    1
    35     6     1   ar
    36    17    10    1
    37    30    22    1
    38    29    24    1
