@<TRIPOS>MOLECULE
*****
 20 21 0 0 0
SMALL
GASTEIGER

@<TRIPOS>ATOM
      1 C          66.4529   93.6200   11.0939 C.2     1  UNL1        0.1535
      2 N          65.3512   92.7901   10.5043 N.2     1  UNL1       -0.2470
      3 C          64.7076   92.0164   11.6166 C.3     1  UNL1        0.1720
      4 C          63.5716   91.0370   11.6316 C.3     1  UNL1        0.1653
      5 O          62.8677   90.6853   10.3545 O.3     1  UNL1       -0.3798
      6 C          63.1394   90.4094   12.9236 C.3     1  UNL1        0.1688
      7 O          62.0034   89.4300   12.9386 O.3     1  UNL1       -0.3794
      8 C          63.8433   90.7612   14.2007 C.3     1  UNL1        0.1746
      9 O          64.9794   91.7406   14.1856 O.3     1  UNL1       -0.3402
     10 C          65.4115   92.3682   12.8936 C.3     1  UNL1        0.1938
     11 S          66.4901   93.3592   12.5706 S.3     1  UNL1       -0.0497
     12 H          62.1640   90.0438   10.5393 H       1  UNL1        0.2105
     13 H          61.6629   89.3160   12.0375 H       1  UNL1        0.2105
     14 C          63.4111   90.1336   15.4927 C.3     1  UNL1        0.1693
     15 O          63.3352   90.9624   16.7406 O.3     1  UNL1       -0.3794
     16 H          64.2264   91.2521   16.9910 H       1  UNL1        0.2105
     17 N          67.3583   94.5478   10.3393 N.pl3   1  UNL1       -0.3135
     18 H          67.4334   95.4912   10.6108 H       1  UNL1        0.1487
     19 C          68.7566   92.6676    9.2170 C.3     1  UNL1        0.0230
     20 C          68.1492   94.0384    9.1710 C.3     1  UNL1        0.0887
@<TRIPOS>BOND
     1    19    20    1
     2    20    17    1
     3    17     1    1
     4     1     2    2
     5     3     2    1
     6     3     4    1
     7     4     5    1
     8     4     6    1
     9     6     7    1
    10     6     8    1
    11     8    14    1
    12    14    15    1
    13     8     9    1
    14    10     9    1
    15    10    11    1
    16    11     1    1
    17    10     3    1
    18    17    18    1
    19     5    12    1
    20     7    13    1
    21    15    16    1
@<TRIPOS>MOLECULE
*****
 20 21 0 0 0
SMALL
GASTEIGER

@<TRIPOS>ATOM
      1 C          66.2756   93.5668   10.6136 C.2     1  UNL1        0.1535
      2 N          66.8625   94.0161   11.9189 N.2     1  UNL1       -0.2470
      3 C          66.2243   93.2146   13.0145 C.3     1  UNL1        0.1720
      4 C          66.4100   93.2229   14.5029 C.3     1  UNL1        0.1653
      5 O          67.3912   94.1677   15.1310 O.3     1  UNL1       -0.3798
      6 C          65.6144   92.2865   15.3632 C.3     1  UNL1        0.1688
      7 O          65.8000   92.2948   16.8516 O.3     1  UNL1       -0.3794
      8 C          64.6331   91.3417   14.7351 C.3     1  UNL1        0.1746
      9 O          64.4475   91.3334   13.2466 O.3     1  UNL1       -0.3402
     10 C          65.2431   92.2698   12.3863 C.3     1  UNL1        0.1938
     11 S          65.2748   92.4875   10.9025 S.3     1  UNL1       -0.0497
     12 H          67.3880   94.0447   16.0932 H       1  UNL1        0.2105
     13 H          66.4655   92.9588   17.0907 H       1  UNL1        0.2105
     14 C          63.8375   90.4053   15.5954 C.3     1  UNL1        0.1693
     15 O          63.2316   90.8960   16.8768 O.3     1  UNL1       -0.3794
     16 H          63.9376   91.1286   17.5000 H       1  UNL1        0.2105
     17 N          66.6278   94.1026    9.2576 N.pl3   1  UNL1       -0.3135
     18 H          65.9834   94.6622    8.7668 H       1  UNL1        0.1487
     19 C          68.6496   92.4947    8.9805 C.3     1  UNL1        0.0230
     20 C          67.9618   93.7858    8.6492 C.3     1  UNL1        0.0887
@<TRIPOS>BOND
     1    19    20    1
     2    20    17    1
     3    17     1    1
     4     1     2    2
     5     3     2    1
     6     3     4    1
     7     4     5    1
     8     4     6    1
     9     6     7    1
    10     6     8    1
    11     8    14    1
    12    14    15    1
    13     8     9    1
    14    10     9    1
    15    10    11    1
    16    11     1    1
    17    10     3    1
    18    17    18    1
    19     5    12    1
    20     7    13    1
    21    15    16    1
@<TRIPOS>MOLECULE
*****
 20 21 0 0 0
SMALL
GASTEIGER

@<TRIPOS>ATOM
      1 C          59.5081   88.4951    7.7193 C.2     1  UNL1        0.1535
      2 N          60.3597   89.3064    8.6502 N.2     1  UNL1       -0.2470
      3 C          61.0141   88.3658    9.6182 C.3     1  UNL1        0.1720
      4 C          61.9594   88.5975   10.7596 C.3     1  UNL1        0.1653
      5 O          62.4065   89.9902   11.0922 O.3     1  UNL1       -0.3798
      6 C          62.4576   87.4366   11.5683 C.3     1  UNL1        0.1688
      7 O          63.4029   87.6683   12.7097 O.3     1  UNL1       -0.3794
      8 C          62.0105   86.0439   11.2357 C.3     1  UNL1        0.1746
      9 O          61.0652   85.8123   10.0943 O.3     1  UNL1       -0.3402
     10 C          60.5670   86.9732    9.2856 C.3     1  UNL1        0.1938
     11 S          59.6363   87.0531    8.1120 S.3     1  UNL1       -0.0497
     12 H          63.0109   89.9633   11.8504 H       1  UNL1        0.2105
     13 H          63.5886   88.6171   12.7881 H       1  UNL1        0.2105
     14 C          62.5087   84.8830   12.0444 C.3     1  UNL1        0.1693
     15 O          62.4747   84.9432   13.5428 O.3     1  UNL1       -0.3794
     16 H          63.0848   85.6306   13.8527 H       1  UNL1        0.2105
     17 N          58.6747   89.0315    6.5934 N.pl3   1  UNL1       -0.3135
     18 H          57.8194   88.6006    6.3654 H       1  UNL1        0.1487
     19 C          58.1474   91.1982    5.2601 C.3     1  UNL1        0.0230
     20 C          59.1445   90.2245    5.8148 C.3     1  UNL1        0.0887
@<TRIPOS>BOND
     1    19    20    1
     2    20    17    1
     3    17     1    1
     4     1     2    2
     5     3     2    1
     6     3     4    1
     7     4     5    1
     8     4     6    1
     9     6     7    1
    10     6     8    1
    11     8    14    1
    12    14    15    1
    13     8     9    1
    14    10     9    1
    15    10    11    1
    16    11     1    1
    17    10     3    1
    18    17    18    1
    19     5    12    1
    20     7    13    1
    21    15    16    1
@<TRIPOS>MOLECULE
*****
 20 21 0 0 0
SMALL
GASTEIGER

@<TRIPOS>ATOM
      1 C          66.1826   92.7546   13.5005 C.2     1  UNL1        0.1535
      2 N          65.2085   91.8858   14.2396 N.2     1  UNL1       -0.2470
      3 C          64.2302   91.3357   13.2445 C.3     1  UNL1        0.1720
      4 C          63.0507   90.4216   13.3965 C.3     1  UNL1        0.1653
      5 O          62.6813   89.8928   14.7507 O.3     1  UNL1       -0.3798
      6 C          62.2405   90.0363   12.1943 C.3     1  UNL1        0.1688
      7 O          61.0610   89.1222   12.3463 O.3     1  UNL1       -0.3794
      8 C          62.6099   90.5652   10.8401 C.3     1  UNL1        0.1746
      9 O          63.7895   91.4793   10.6881 O.3     1  UNL1       -0.3402
     10 C          64.5996   91.8646   11.8903 C.3     1  UNL1        0.1938
     11 S          65.8062   92.7415   12.0485 S.3     1  UNL1       -0.0497
     12 H          61.9013   89.3214   14.6730 H       1  UNL1        0.2105
     13 H          60.9619   88.8746   13.2789 H       1  UNL1        0.2105
     14 C          61.7998   90.1799    9.6379 C.3     1  UNL1        0.1693
     15 O          60.3018   90.2325    9.6947 O.3     1  UNL1       -0.3794
     16 H          59.9788   89.5713   10.3267 H       1  UNL1        0.2105
     17 N          67.3313   93.5049   14.1068 N.pl3   1  UNL1       -0.3135
     18 H          67.8982   94.0779   13.5416 H       1  UNL1        0.1487
     19 C          68.5843   92.3472   16.0664 C.3     1  UNL1        0.0230
     20 C          67.6162   93.3820   15.5743 C.3     1  UNL1        0.0887
@<TRIPOS>BOND
     1    19    20    1
     2    20    17    1
     3    17     1    1
     4     1     2    2
     5     3     2    1
     6     3     4    1
     7     4     5    1
     8     4     6    1
     9     6     7    1
    10     6     8    1
    11     8    14    1
    12    14    15    1
    13     8     9    1
    14    10     9    1
    15    10    11    1
    16    11     1    1
    17    10     3    1
    18    17    18    1
    19     5    12    1
    20     7    13    1
    21    15    16    1
@<TRIPOS>MOLECULE
*****
 20 21 0 0 0
SMALL
GASTEIGER

@<TRIPOS>ATOM
      1 C          63.2092   85.3970   12.5732 C.2     1  UNL1        0.1535
      2 N          63.0890   86.8912   12.5196 N.2     1  UNL1       -0.2470
      3 C          62.2005   87.2437   11.3636 C.3     1  UNL1        0.1720
      4 C          61.7266   88.5619   10.8274 C.3     1  UNL1        0.1653
      5 O          62.1555   89.8383   11.4883 O.3     1  UNL1       -0.3798
      6 C          60.8236   88.6038    9.6303 C.3     1  UNL1        0.1688
      7 O          60.3497   89.9221    9.0941 O.3     1  UNL1       -0.3794
      8 C          60.3947   87.3274    8.9694 C.3     1  UNL1        0.1746
      9 O          60.8687   86.0091    9.5056 O.3     1  UNL1       -0.3402
     10 C          61.7715   85.9673   10.7027 C.3     1  UNL1        0.1938
     11 S          62.3950   84.8260   11.4503 S.3     1  UNL1       -0.0497
     12 H          61.7633   90.5922   11.0206 H       1  UNL1        0.2105
     13 H          60.7164   90.6408    9.6325 H       1  UNL1        0.2105
     14 C          59.4918   87.3693    7.7723 C.3     1  UNL1        0.1693
     15 O          58.1846   86.6340    7.7928 O.3     1  UNL1       -0.3794
     16 H          58.3511   85.6794    7.8371 H       1  UNL1        0.2105
     17 N          64.0041   84.6117   13.5739 N.pl3   1  UNL1       -0.3135
     18 H          64.8176   84.1346   13.2912 H       1  UNL1        0.1487
     19 C          63.8613   85.6942   15.9314 C.3     1  UNL1        0.0230
     20 C          63.5597   84.5534   15.0053 C.3     1  UNL1        0.0887
@<TRIPOS>BOND
     1    19    20    1
     2    20    17    1
     3    17     1    1
     4     1     2    2
     5     3     2    1
     6     3     4    1
     7     4     5    1
     8     4     6    1
     9     6     7    1
    10     6     8    1
    11     8    14    1
    12    14    15    1
    13     8     9    1
    14    10     9    1
    15    10    11    1
    16    11     1    1
    17    10     3    1
    18    17    18    1
    19     5    12    1
    20     7    13    1
    21    15    16    1
@<TRIPOS>MOLECULE
*****
 20 21 0 0 0
SMALL
GASTEIGER

@<TRIPOS>ATOM
      1 C          62.5705   89.7248   12.0278 C.2     1  UNL1        0.1535
      2 N          63.1783   90.7226   11.0871 N.2     1  UNL1       -0.2470
      3 C          64.1864   91.5273   11.8527 C.3     1  UNL1        0.1720
      4 C          65.0925   92.6510   11.4450 C.3     1  UNL1        0.1653
      5 O          65.0772   93.1514   10.0310 O.3     1  UNL1       -0.3798
      6 C          66.0138   93.2744   12.4513 C.3     1  UNL1        0.1688
      7 O          66.9199   94.3981   12.0436 O.3     1  UNL1       -0.3794
      8 C          66.0291   92.7740   13.8653 C.3     1  UNL1        0.1746
      9 O          65.1230   91.6502   14.2729 O.3     1  UNL1       -0.3402
     10 C          64.2017   91.0269   13.2667 C.3     1  UNL1        0.1938
     11 S          63.2030   89.9129   13.3749 S.3     1  UNL1       -0.0497
     12 H          65.7171   93.8743    9.9369 H       1  UNL1        0.2105
     13 H          66.7855   94.5971   11.1038 H       1  UNL1        0.2105
     14 C          66.9504   93.3973   14.8715 C.3     1  UNL1        0.1693
     15 O          66.6339   93.3073   16.3350 O.3     1  UNL1       -0.3794
     16 H          65.8253   93.8093   16.5224 H       1  UNL1        0.2105
     17 N          61.5154   88.7162   11.6822 N.pl3   1  UNL1       -0.3135
     18 H          61.6722   87.7602   11.8576 H       1  UNL1        0.1487
     19 C          59.5654   90.4272   11.5425 C.3     1  UNL1        0.0230
     20 C          60.2216   89.1640   11.0695 C.3     1  UNL1        0.0887
@<TRIPOS>BOND
     1    19    20    1
     2    20    17    1
     3    17     1    1
     4     1     2    2
     5     3     2    1
     6     3     4    1
     7     4     5    1
     8     4     6    1
     9     6     7    1
    10     6     8    1
    11     8    14    1
    12    14    15    1
    13     8     9    1
    14    10     9    1
    15    10    11    1
    16    11     1    1
    17    10     3    1
    18    17    18    1
    19     5    12    1
    20     7    13    1
    21    15    16    1
@<TRIPOS>MOLECULE
*****
 20 21 0 0 0
SMALL
GASTEIGER

@<TRIPOS>ATOM
      1 C          61.6299   89.3539   10.6497 C.2     1  UNL1        0.1535
      2 N          61.7042   89.2302   12.1427 N.2     1  UNL1       -0.2470
      3 C          62.8019   90.1298   12.6284 C.3     1  UNL1        0.1720
      4 C          63.3293   90.4178   14.0027 C.3     1  UNL1        0.1653
      5 O          62.7252   89.7380   15.1956 O.3     1  UNL1       -0.3798
      6 C          64.4610   91.3856   14.1842 C.3     1  UNL1        0.1688
      7 O          64.9884   91.6735   15.5585 O.3     1  UNL1       -0.3794
      8 C          65.0651   92.0653   12.9913 C.3     1  UNL1        0.1746
      9 O          64.5375   91.7773   11.6169 O.3     1  UNL1       -0.3402
     10 C          63.4060   90.8095   11.4355 C.3     1  UNL1        0.1938
     11 S          62.6816   90.3300   10.2126 S.3     1  UNL1       -0.0497
     12 H          63.1790   90.0335   16.0004 H       1  UNL1        0.2105
     13 H          64.4912   91.1557   16.2108 H       1  UNL1        0.2105
     14 C          66.1966   93.0331   13.1727 C.3     1  UNL1        0.1693
     15 O          66.1622   94.0249   14.2975 O.3     1  UNL1       -0.3794
     16 H          65.4349   94.6506   14.1547 H       1  UNL1        0.2105
     17 N          60.6720   88.6289    9.7514 N.pl3   1  UNL1       -0.3135
     18 H          59.9957   89.1330    9.2437 H       1  UNL1        0.1487
     19 C          61.9984   86.4855    9.1220 C.3     1  UNL1        0.0230
     20 C          60.7445   87.1359    9.6267 C.3     1  UNL1        0.0887
@<TRIPOS>BOND
     1    19    20    1
     2    20    17    1
     3    17     1    1
     4     1     2    2
     5     3     2    1
     6     3     4    1
     7     4     5    1
     8     4     6    1
     9     6     7    1
    10     6     8    1
    11     8    14    1
    12    14    15    1
    13     8     9    1
    14    10     9    1
    15    10    11    1
    16    11     1    1
    17    10     3    1
    18    17    18    1
    19     5    12    1
    20     7    13    1
    21    15    16    1
@<TRIPOS>MOLECULE
*****
 20 21 0 0 0
SMALL
GASTEIGER

@<TRIPOS>ATOM
      1 C          62.0201   90.3606   10.4391 C.2     1  UNL1        0.1535
      2 N          63.0247   91.3749    9.9791 N.2     1  UNL1       -0.2470
      3 C          64.0048   91.5950   11.0931 C.3     1  UNL1        0.1720
      4 C          65.2089   92.4818   11.2101 C.3     1  UNL1        0.1653
      5 O          65.6079   93.3602   10.0615 O.3     1  UNL1       -0.3798
      6 C          66.0141   92.4901   12.4756 C.3     1  UNL1        0.1688
      7 O          67.2183   93.3769   12.5926 O.3     1  UNL1       -0.3794
      8 C          65.6152   91.6117   13.6242 C.3     1  UNL1        0.1746
      9 O          64.4109   90.7250   13.5072 O.3     1  UNL1       -0.3402
     10 C          63.6058   90.7166   12.2417 C.3     1  UNL1        0.1938
     11 S          62.3792   89.9537   11.8374 S.3     1  UNL1       -0.0497
     12 H          66.4012   93.8646   10.3006 H       1  UNL1        0.2105
     13 H          67.3348   93.8743   11.7680 H       1  UNL1        0.2105
     14 C          66.4203   91.6201   14.8898 C.3     1  UNL1        0.1693
     15 O          67.9104   91.4585   14.8317 O.3     1  UNL1       -0.3794
     16 H          68.1270   90.5704   14.5074 H       1  UNL1        0.2105
     17 N          60.8600   89.8438    9.6409 N.pl3   1  UNL1       -0.3135
     18 H          60.3390   90.4584    9.0751 H       1  UNL1        0.1487
     19 C          61.4840   87.3481    9.2777 C.3     1  UNL1        0.0230
     20 C          60.4937   88.3906    9.7046 C.3     1  UNL1        0.0887
@<TRIPOS>BOND
     1    19    20    1
     2    20    17    1
     3    17     1    1
     4     1     2    2
     5     3     2    1
     6     3     4    1
     7     4     5    1
     8     4     6    1
     9     6     7    1
    10     6     8    1
    11     8    14    1
    12    14    15    1
    13     8     9    1
    14    10     9    1
    15    10    11    1
    16    11     1    1
    17    10     3    1
    18    17    18    1
    19     5    12    1
    20     7    13    1
    21    15    16    1
@<TRIPOS>MOLECULE
*****
 20 21 0 0 0
SMALL
GASTEIGER

@<TRIPOS>ATOM
      1 C          61.6907   89.4193   11.6473 C.2     1  UNL1        0.1535
      2 N          62.5167   89.7072   12.8658 N.2     1  UNL1       -0.2470
      3 C          63.5575   90.7204   12.4915 C.3     1  UNL1        0.1720
      4 C          64.6481   91.3786   13.2835 C.3     1  UNL1        0.1653
      5 O          64.8308   91.0403   14.7334 O.3     1  UNL1       -0.3798
      6 C          65.5559   92.3753   12.6257 C.3     1  UNL1        0.1688
      7 O          66.6465   93.0335   13.4178 O.3     1  UNL1       -0.3794
      8 C          65.3732   92.7136   11.1759 C.3     1  UNL1        0.1746
      9 O          64.2826   92.0553   10.3838 O.3     1  UNL1       -0.3402
     10 C          63.3748   91.0587   11.0416 C.3     1  UNL1        0.1938
     11 S          62.2210   90.2546   10.5199 S.3     1  UNL1       -0.0497
     12 H          65.5737   91.5499   15.0932 H       1  UNL1        0.2105
     13 H          66.6263   92.7055   14.3304 H       1  UNL1        0.2105
     14 C          66.2810   93.7101   10.5180 C.3     1  UNL1        0.1693
     15 O          66.8271   94.8627   11.3076 O.3     1  UNL1       -0.3794
     16 H          66.1003   95.4509   11.5659 H       1  UNL1        0.2105
     17 N          60.5369   88.4639   11.5698 N.pl3   1  UNL1       -0.3135
     18 H          59.6946   88.6704   12.0357 H       1  UNL1        0.1487
     19 C          61.7299   86.1969   11.1366 C.3     1  UNL1        0.0230
     20 C          60.6665   87.1938   10.7824 C.3     1  UNL1        0.0887
@<TRIPOS>BOND
     1    19    20    1
     2    20    17    1
     3    17     1    1
     4     1     2    2
     5     3     2    1
     6     3     4    1
     7     4     5    1
     8     4     6    1
     9     6     7    1
    10     6     8    1
    11     8    14    1
    12    14    15    1
    13     8     9    1
    14    10     9    1
    15    10    11    1
    16    11     1    1
    17    10     3    1
    18    17    18    1
    19     5    12    1
    20     7    13    1
    21    15    16    1
