@<TRIPOS>MOLECULE
*****
 34 38 0 0 0
SMALL
GASTEIGER

@<TRIPOS>ATOM
      1 C          64.7747   90.2429   14.1256 C.ar    1  UNL1        0.0604
      2 C          65.6853   91.1542   14.8941 C.ar    1  UNL1        0.0454
      3 C          66.2091   92.4054   14.2535 C.ar    1  UNL1        0.1850
      4 N          67.1162   93.4877   14.7591 N.ar    1  UNL1       -0.1270
      5 N          67.2899   94.4965   13.6627 N.ar    1  UNL1       -0.1269
      6 C          66.4902   94.0377   12.4796 C.ar    1  UNL1        0.1878
      7 N          65.8222   92.7453   12.8447 N.ar    1  UNL1       -0.2083
      8 N          64.9115   91.8340   12.0764 N.ar    1  UNL1       -0.2278
      9 C          64.5246   92.1739   10.6676 C.3     1  UNL1        0.1555
     10 C          64.3878   90.5828   12.7169 C.ar    1  UNL1        0.2753
     11 O          63.4772   89.6715   11.9485 O.2     1  UNL1       -0.2656
     12 C          63.4453   90.3761   16.8117 C.3     1  UNL1        0.0334
     13 C          63.5862   89.0582   16.1092 C.ar    1  UNL1        0.0058
     14 C          63.0625   87.8070   16.7497 C.ar    1  UNL1        0.1363
     15 F          62.3978   87.8737   18.0927 F       1  UNL1       -0.2045
     16 C          63.2035   86.4893   16.0471 C.ar    1  UNL1        0.0338
     17 C          63.8682   86.4227   14.7041 C.ar    1  UNL1        0.0556
     18 C          64.3919   87.6739   14.0636 C.ar    1  UNL1        0.0045
     19 C          64.2509   88.9916   14.7662 C.ar    1  UNL1        0.0031
     20 C          64.0092   85.1049   14.0015 C.2     1  UNL1        0.2459
     21 O          64.7195   83.9682   14.6750 O.2     1  UNL1       -0.2701
     22 N          63.4400   84.9238   12.6256 N.am    1  UNL1       -0.3025
     23 H          62.9739   85.6699   12.1836 H       1  UNL1        0.1497
     24 C          63.5810   83.6060   11.9231 C.3     1  UNL1        0.0720
     25 C          63.1473   82.1829   11.7318 C.3     1  UNL1        0.0213
     26 C          64.2592   82.7466   10.8977 C.3     1  UNL1        0.0213
     27 C          66.3782   94.7468   11.1625 C.ar    1  UNL1        0.0755
     28 C          65.7552   96.1096   11.0951 C.ar    1  UNL1        0.1439
     29 F          65.2442   96.7633   12.3448 F       1  UNL1       -0.2040
     30 C          65.6431   96.8188    9.7781 C.ar    1  UNL1        0.0298
     31 C          66.1541   96.1651    8.5285 C.ar    1  UNL1        0.0032
     32 C          66.7771   94.8022    8.5959 C.ar    1  UNL1        0.0116
     33 C          66.8891   94.0931    9.9129 C.ar    1  UNL1        0.0628
     34 CL         67.5121   92.7303    9.9803 Cl      1  UNL1       -0.0821
@<TRIPOS>BOND
     1    12    13    1
     2    13    14   ar
     3    14    15    1
     4    14    16   ar
     5    16    17   ar
     6    17    20    1
     7    20    21    2
     8    20    22   am
     9    22    24    1
    10    24    25    1
    11    25    26    1
    12    17    18   ar
    13    18    19   ar
    14    19     1    1
    15     1     2   ar
    16     2     3   ar
    17     3     4   ar
    18     4     5   ar
    19     5     6   ar
    20     6    27    1
    21    27    28   ar
    22    28    29    1
    23    28    30   ar
    24    30    31   ar
    25    31    32   ar
    26    32    33   ar
    27    33    34    1
    28     6     7   ar
    29     7     8   ar
    30     8     9    1
    31     8    10   ar
    32    10    11    2
    33    19    13   ar
    34    10     1   ar
    35    26    24    1
    36     7     3   ar
    37    33    27   ar
    38    22    23    1
@<TRIPOS>MOLECULE
*****
 34 38 0 0 0
SMALL
GASTEIGER

@<TRIPOS>ATOM
      1 C          63.9502   88.6543   13.4125 C.ar    1  UNL1        0.0604
      2 C          63.0234   88.5144   12.2414 C.ar    1  UNL1        0.0454
      3 C          62.5519   87.1554   11.8162 C.ar    1  UNL1        0.1850
      4 N          61.6434   86.7091   10.7092 N.ar    1  UNL1       -0.1270
      5 N          61.5373   85.2141   10.7710 N.ar    1  UNL1       -0.1269
      6 C          62.3803   84.7365   11.9161 C.ar    1  UNL1        0.1878
      7 N          63.0073   85.9363   12.5621 N.ar    1  UNL1       -0.2083
      8 N          63.9342   86.0762   13.7332 N.ar    1  UNL1       -0.2278
      9 C          64.3896   84.8571   14.4791 C.3     1  UNL1        0.1555
     10 C          64.4056   87.4352   14.1583 C.ar    1  UNL1        0.2753
     11 O          65.3325   87.5751   15.3294 O.2     1  UNL1       -0.2656
     12 C          63.4266   89.6180   16.2048 C.3     1  UNL1        0.0334
     13 C          64.1599   90.4952   15.2338 C.ar    1  UNL1        0.0058
     14 C          64.6314   91.8543   15.6589 C.ar    1  UNL1        0.1363
     15 F          64.3695   92.3361   17.0552 F       1  UNL1       -0.2045
     16 C          65.3646   92.7314   14.6879 C.ar    1  UNL1        0.0338
     17 C          65.6264   92.2496   13.2918 C.ar    1  UNL1        0.0556
     18 C          65.1550   90.8906   12.8666 C.ar    1  UNL1        0.0045
     19 C          64.4217   90.0134   13.8377 C.ar    1  UNL1        0.0031
     20 C          66.3597   93.1268   12.3207 C.2     1  UNL1        0.2459
     21 O          67.6896   92.6956   11.7770 O.2     1  UNL1       -0.2701
     22 N          65.7631   94.4350   11.8934 N.am    1  UNL1       -0.3025
     23 H          64.8903   94.7180   12.2503 H       1  UNL1        0.1497
     24 C          66.4964   95.3122   10.9224 C.3     1  UNL1        0.0720
     25 C          67.3566   95.4647    9.7030 C.3     1  UNL1        0.0213
     26 C          66.9064   96.6790   10.4600 C.3     1  UNL1        0.0213
     27 C          62.5639   83.3096   12.3407 C.ar    1  UNL1        0.0755
     28 C          62.0747   82.8583   13.6849 C.ar    1  UNL1        0.1439
     29 F          61.4019   83.8338   14.6046 F       1  UNL1       -0.2040
     30 C          62.2583   81.4313   14.1096 C.ar    1  UNL1        0.0298
     31 C          62.9310   80.4558   13.1900 C.ar    1  UNL1        0.0032
     32 C          63.4202   80.9073   11.8457 C.ar    1  UNL1        0.0116
     33 C          63.2366   82.3341   11.4211 C.ar    1  UNL1        0.0628
     34 CL         63.7258   82.7854   10.0769 Cl      1  UNL1       -0.0821
@<TRIPOS>BOND
     1    12    13    1
     2    13    14   ar
     3    14    15    1
     4    14    16   ar
     5    16    17   ar
     6    17    20    1
     7    20    21    2
     8    20    22   am
     9    22    24    1
    10    24    25    1
    11    25    26    1
    12    17    18   ar
    13    18    19   ar
    14    19     1    1
    15     1     2   ar
    16     2     3   ar
    17     3     4   ar
    18     4     5   ar
    19     5     6   ar
    20     6    27    1
    21    27    28   ar
    22    28    29    1
    23    28    30   ar
    24    30    31   ar
    25    31    32   ar
    26    32    33   ar
    27    33    34    1
    28     6     7   ar
    29     7     8   ar
    30     8     9    1
    31     8    10   ar
    32    10    11    2
    33    19    13   ar
    34    10     1   ar
    35    26    24    1
    36     7     3   ar
    37    33    27   ar
    38    22    23    1
@<TRIPOS>MOLECULE
*****
 34 38 0 0 0
SMALL
GASTEIGER

@<TRIPOS>ATOM
      1 C          63.9865   87.4197   14.0760 C.ar    1  UNL1        0.0604
      2 C          64.5350   86.4836   15.1119 C.ar    1  UNL1        0.0454
      3 C          64.4952   85.0022   14.8802 C.ar    1  UNL1        0.1850
      4 N          64.9562   83.8433   15.7135 N.ar    1  UNL1       -0.1270
      5 N          64.6530   82.5817   14.9609 N.ar    1  UNL1       -0.1269
      6 C          64.0046   82.9609   13.6625 C.ar    1  UNL1        0.1878
      7 N          63.9071   84.4568   13.6126 N.ar    1  UNL1       -0.2083
      8 N          63.3587   85.3929   12.5768 N.ar    1  UNL1       -0.2278
      9 C          62.7706   84.8476   11.3092 C.3     1  UNL1        0.1555
     10 C          63.3984   86.8744   12.8085 C.ar    1  UNL1        0.2753
     11 O          62.8500   87.8105   11.7725 O.2     1  UNL1       -0.2656
     12 C          63.2224   88.5405   16.7517 C.3     1  UNL1        0.0334
     13 C          63.6442   89.4617   15.6456 C.ar    1  UNL1        0.0058
     14 C          63.6840   90.9431   15.8772 C.ar    1  UNL1        0.1363
     15 F          63.3019   91.5035   17.2152 F       1  UNL1       -0.2045
     16 C          64.1058   91.8642   14.7710 C.ar    1  UNL1        0.0338
     17 C          64.4878   91.3038   13.4331 C.ar    1  UNL1        0.0556
     18 C          64.4481   89.8224   13.2014 C.ar    1  UNL1        0.0045
     19 C          64.0263   88.9013   14.3077 C.ar    1  UNL1        0.0031
     20 C          64.9096   92.2249   12.3269 C.2     1  UNL1        0.2459
     21 O          64.4826   91.9472   10.9160 O.2     1  UNL1       -0.2701
     22 N          65.7584   93.4235   12.6316 N.am    1  UNL1       -0.3025
     23 H          66.0386   93.6058   13.5576 H       1  UNL1        0.1497
     24 C          66.1802   94.3446   11.5253 C.3     1  UNL1        0.0720
     25 C          66.8793   94.5691   10.2173 C.3     1  UNL1        0.0213
     26 C          66.2114   95.7154   10.9172 C.3     1  UNL1        0.0213
     27 C          63.5360   82.0108   12.6005 C.ar    1  UNL1        0.0755
     28 C          64.0703   82.1249   11.2035 C.ar    1  UNL1        0.1439
     29 F          65.0731   83.1889   10.8685 F       1  UNL1       -0.2040
     30 C          63.6017   81.1748   10.1414 C.ar    1  UNL1        0.0298
     31 C          62.5990   80.1108   10.4763 C.ar    1  UNL1        0.0032
     32 C          62.0647   79.9968   11.8734 C.ar    1  UNL1        0.0116
     33 C          62.5332   80.9468   12.9354 C.ar    1  UNL1        0.0628
     34 CL         61.9990   80.8327   14.3324 Cl      1  UNL1       -0.0821
@<TRIPOS>BOND
     1    12    13    1
     2    13    14   ar
     3    14    15    1
     4    14    16   ar
     5    16    17   ar
     6    17    20    1
     7    20    21    2
     8    20    22   am
     9    22    24    1
    10    24    25    1
    11    25    26    1
    12    17    18   ar
    13    18    19   ar
    14    19     1    1
    15     1     2   ar
    16     2     3   ar
    17     3     4   ar
    18     4     5   ar
    19     5     6   ar
    20     6    27    1
    21    27    28   ar
    22    28    29    1
    23    28    30   ar
    24    30    31   ar
    25    31    32   ar
    26    32    33   ar
    27    33    34    1
    28     6     7   ar
    29     7     8   ar
    30     8     9    1
    31     8    10   ar
    32    10    11    2
    33    19    13   ar
    34    10     1   ar
    35    26    24    1
    36     7     3   ar
    37    33    27   ar
    38    22    23    1
@<TRIPOS>MOLECULE
*****
 34 38 0 0 0
SMALL
GASTEIGER

@<TRIPOS>ATOM
      1 C          62.2469   88.1886   10.6658 C.ar    1  UNL1        0.0604
      2 C          62.6673   87.1921   11.7051 C.ar    1  UNL1        0.0454
      3 C          63.4081   87.6497   12.9265 C.ar    1  UNL1        0.1850
      4 N          63.9467   86.9044   14.1116 N.ar    1  UNL1       -0.1270
      5 N          64.5999   87.8979   15.0261 N.ar    1  UNL1       -0.1269
      6 C          64.4650   89.2571   14.4062 C.ar    1  UNL1        0.1878
      7 N          63.7284   89.1037   13.1086 N.ar    1  UNL1       -0.2083
      8 N          63.3079   90.1002   12.0692 N.ar    1  UNL1       -0.2278
      9 C          63.6282   91.5543   12.2513 C.3     1  UNL1        0.1555
     10 C          62.5671   89.6426   10.8478 C.ar    1  UNL1        0.2753
     11 O          62.1467   90.6392    9.8085 O.2     1  UNL1       -0.2656
     12 C          62.5102   85.3516    9.7268 C.3     1  UNL1        0.0334
     13 C          61.6377   86.3125    8.9748 C.ar    1  UNL1        0.0058
     14 C          60.8970   85.8550    7.7533 C.ar    1  UNL1        0.1363
     15 F          61.0287   84.4364    7.2839 F       1  UNL1       -0.2045
     16 C          60.0245   86.8159    7.0014 C.ar    1  UNL1        0.0338
     17 C          59.8928   88.2344    7.4709 C.ar    1  UNL1        0.0556
     18 C          60.6336   88.6920    8.6924 C.ar    1  UNL1        0.0045
     19 C          61.5060   87.7310    9.4443 C.ar    1  UNL1        0.0031
     20 C          59.0203   89.1954    6.7190 C.2     1  UNL1        0.2459
     21 O          57.5274   89.0864    6.8160 O.2     1  UNL1       -0.2701
     22 N          59.6407   90.2653    5.8703 N.am    1  UNL1       -0.3025
     23 H          60.6206   90.3368    5.8067 H       1  UNL1        0.1497
     24 C          58.7682   91.2262    5.1184 C.3     1  UNL1        0.0720
     25 C          58.6152   92.3263    4.1102 C.3     1  UNL1        0.0213
     26 C          57.4098   91.7904    4.8243 C.3     1  UNL1        0.0213
     27 C          64.9768   90.5438   14.9828 C.ar    1  UNL1        0.0755
     28 C          66.1007   91.2732   14.3084 C.ar    1  UNL1        0.1439
     29 F          66.7128   90.7159   13.0575 F       1  UNL1       -0.2040
     30 C          66.6126   92.5600   14.8850 C.ar    1  UNL1        0.0298
     31 C          66.0005   93.1173   16.1358 C.ar    1  UNL1        0.0032
     32 C          64.8765   92.3878   16.8102 C.ar    1  UNL1        0.0116
     33 C          64.3647   91.1012   16.2337 C.ar    1  UNL1        0.0628
     34 CL         63.2408   90.3718   16.9080 Cl      1  UNL1       -0.0821
@<TRIPOS>BOND
     1    12    13    1
     2    13    14   ar
     3    14    15    1
     4    14    16   ar
     5    16    17   ar
     6    17    20    1
     7    20    21    2
     8    20    22   am
     9    22    24    1
    10    24    25    1
    11    25    26    1
    12    17    18   ar
    13    18    19   ar
    14    19     1    1
    15     1     2   ar
    16     2     3   ar
    17     3     4   ar
    18     4     5   ar
    19     5     6   ar
    20     6    27    1
    21    27    28   ar
    22    28    29    1
    23    28    30   ar
    24    30    31   ar
    25    31    32   ar
    26    32    33   ar
    27    33    34    1
    28     6     7   ar
    29     7     8   ar
    30     8     9    1
    31     8    10   ar
    32    10    11    2
    33    19    13   ar
    34    10     1   ar
    35    26    24    1
    36     7     3   ar
    37    33    27   ar
    38    22    23    1
