@<TRIPOS>MOLECULE
*****
 25 28 0 0 0
SMALL
GASTEIGER

@<TRIPOS>ATOM
      1 C          65.1603   92.3533   12.1304 C.ar    1  UNL1        0.1581
      2 N          65.2289   92.1208   13.6107 N.ar    1  UNL1       -0.1641
      3 N          64.1459   91.1501   13.9781 N.ar    1  UNL1       -0.2463
      4 C          63.4080   90.7827   12.7249 C.ar    1  UNL1        0.0799
      5 C          62.2462   89.8672   12.4760 C.ar    1  UNL1        0.0188
      6 C          61.7114   89.6952   11.0852 C.ar    1  UNL1        0.0015
      7 C          62.3383   90.4388    9.9433 C.ar    1  UNL1        0.0001
      8 C          63.5001   91.3544   10.1921 C.ar    1  UNL1        0.0032
      9 C          64.0349   91.5263   11.5829 C.ar    1  UNL1        0.0413
     10 C          66.9409   95.1956   10.1768 C.ar    1  UNL1        0.1965
     11 N          67.9442   94.0872   10.0546 N.ar    1  UNL1       -0.0587
     12 O          67.3993   92.8876   10.7716 O.2     1  UNL1       -0.3311
     13 C          66.0592   93.2545   11.3369 C.ar    1  UNL1        0.2792
     14 N          65.7759   94.6809   10.9693 N.ar    1  UNL1       -0.1884
     15 N          67.7761   96.7796    8.2945 N.3     1  UNL1       -0.3147
     16 C          67.0784   96.5761    9.6067 C.3     1  UNL1        0.1355
     17 H          67.7777   97.7724    8.0607 H       1  UNL1        0.1192
     18 H          67.2877   96.2595    7.5655 H       1  UNL1        0.1192
     19 C          63.8524   90.6369   15.3566 C.3     1  UNL1        0.1538
     20 C          63.7966   89.1596   15.6109 C.ar    1  UNL1        0.0021
     21 C          63.0627   88.6318   16.8079 C.ar    1  UNL1       -0.0023
     22 C          63.0068   87.1546   17.0622 C.ar    1  UNL1       -0.0003
     23 C          63.6849   86.2052   16.1194 C.ar    1  UNL1       -0.0000
     24 C          64.4188   86.7330   14.9224 C.ar    1  UNL1       -0.0003
     25 C          64.4746   88.2102   14.6681 C.ar    1  UNL1       -0.0023
@<TRIPOS>BOND
     1    15    16    1
     2    16    10    1
     3    10    11   ar
     4    11    12   ar
     5    12    13   ar
     6    13     1    1
     7     1     2   ar
     8     2     3   ar
     9     3    19    1
    10    19    20    1
    11    20    21   ar
    12    21    22   ar
    13    22    23   ar
    14    23    24   ar
    15    24    25   ar
    16     3     4   ar
    17     4     5   ar
    18     5     6   ar
    19     6     7   ar
    20     7     8   ar
    21     8     9   ar
    22    13    14   ar
    23    14    10   ar
    24     9     1   ar
    25    25    20   ar
    26     9     4   ar
    27    15    17    1
    28    15    18    1
@<TRIPOS>MOLECULE
*****
 25 28 0 0 0
SMALL
GASTEIGER

@<TRIPOS>ATOM
      1 C          62.2153   86.3204   11.1066 C.ar    1  UNL1        0.1581
      2 N          62.5034   87.5516   11.9135 N.ar    1  UNL1       -0.1641
      3 N          61.8078   88.7081   11.2588 N.ar    1  UNL1       -0.2463
      4 C          61.0899   88.1917   10.0472 C.ar    1  UNL1        0.0799
      5 C          60.2394   88.8744    9.0175 C.ar    1  UNL1        0.0188
      6 C          59.6407   88.0815    7.8937 C.ar    1  UNL1        0.0015
      7 C          59.8926   86.6058    7.7997 C.ar    1  UNL1        0.0001
      8 C          60.7431   85.9230    8.8294 C.ar    1  UNL1        0.0032
      9 C          61.3417   86.7159    9.9532 C.ar    1  UNL1        0.0413
     10 C          63.2428   82.8726   12.5635 C.ar    1  UNL1        0.1965
     11 N          63.7169   82.7415   11.1465 N.ar    1  UNL1       -0.0587
     12 O          63.3897   84.0171   10.4283 O.2     1  UNL1       -0.3311
     13 C          62.7134   84.9366   11.4014 C.ar    1  UNL1        0.2792
     14 N          62.6225   84.2293   12.7210 N.ar    1  UNL1       -0.1884
     15 N          62.3622   81.7744   14.7472 N.3     1  UNL1       -0.3147
     16 C          63.3670   81.8302   13.6348 C.3     1  UNL1        0.1355
     17 H          62.5984   81.0106   15.3807 H       1  UNL1        0.1192
     18 H          61.4324   81.6181   14.3579 H       1  UNL1        0.1192
     19 C          61.8268   90.1313   11.7324 C.3     1  UNL1        0.1538
     20 C          63.1277   90.8716   11.8309 C.ar    1  UNL1        0.0021
     21 C          63.8529   90.9425   13.1421 C.ar    1  UNL1       -0.0023
     22 C          65.1537   91.6828   13.2407 C.ar    1  UNL1       -0.0003
     23 C          65.7294   92.3522   12.0281 C.ar    1  UNL1       -0.0000
     24 C          65.0043   92.2814   10.7170 C.ar    1  UNL1       -0.0003
     25 C          63.7035   91.5411   10.6183 C.ar    1  UNL1       -0.0023
@<TRIPOS>BOND
     1    15    16    1
     2    16    10    1
     3    10    11   ar
     4    11    12   ar
     5    12    13   ar
     6    13     1    1
     7     1     2   ar
     8     2     3   ar
     9     3    19    1
    10    19    20    1
    11    20    21   ar
    12    21    22   ar
    13    22    23   ar
    14    23    24   ar
    15    24    25   ar
    16     3     4   ar
    17     4     5   ar
    18     5     6   ar
    19     6     7   ar
    20     7     8   ar
    21     8     9   ar
    22    13    14   ar
    23    14    10   ar
    24     9     1   ar
    25    25    20   ar
    26     9     4   ar
    27    15    17    1
    28    15    18    1
@<TRIPOS>MOLECULE
*****
 25 28 0 0 0
SMALL
GASTEIGER

@<TRIPOS>ATOM
      1 C          64.6538   92.1681   10.9821 C.ar    1  UNL1        0.1581
      2 N          63.4218   91.8115   10.2044 N.ar    1  UNL1       -0.1641
      3 N          62.5862   90.8991   11.0525 N.ar    1  UNL1       -0.2463
      4 C          63.3018   90.6918   12.3544 C.ar    1  UNL1        0.0799
      5 C          62.9549   89.8902   13.5738 C.ar    1  UNL1        0.0188
      6 C          63.8859   89.8729   14.7498 C.ar    1  UNL1        0.0015
      7 C          65.1638   90.6572   14.7063 C.ar    1  UNL1        0.0001
      8 C          65.5107   91.4588   13.4869 C.ar    1  UNL1        0.0032
      9 C          64.5797   91.4761   12.3109 C.ar    1  UNL1        0.0413
     10 C          67.0247   95.0289    9.8595 C.ar    1  UNL1        0.1965
     11 N          67.9250   93.8366    9.7249 N.ar    1  UNL1       -0.0587
     12 O          67.1464   92.6199   10.1291 O.2     1  UNL1       -0.3311
     13 C          65.7650   93.0601   10.5134 C.ar    1  UNL1        0.2792
     14 N          65.6898   94.5489   10.3468 N.ar    1  UNL1       -0.1884
     15 N          67.9000   96.8233    8.1971 N.3     1  UNL1       -0.3147
     16 C          67.3945   96.4512    9.5594 C.3     1  UNL1        0.1355
     17 H          68.1012   97.8229    8.1704 H       1  UNL1        0.1192
     18 H          67.1908   96.6005    7.4986 H       1  UNL1        0.1192
     19 C          61.2666   90.2993   10.6665 C.3     1  UNL1        0.1538
     20 C          61.2220   88.9777    9.9582 C.ar    1  UNL1        0.0021
     21 C          60.1555   88.7092    8.9381 C.ar    1  UNL1       -0.0023
     22 C          60.1107   87.3877    8.2299 C.ar    1  UNL1       -0.0003
     23 C          61.1326   86.3348    8.5416 C.ar    1  UNL1       -0.0000
     24 C          62.1991   86.6034    9.5616 C.ar    1  UNL1       -0.0003
     25 C          62.2438   87.9248   10.2699 C.ar    1  UNL1       -0.0023
@<TRIPOS>BOND
     1    15    16    1
     2    16    10    1
     3    10    11   ar
     4    11    12   ar
     5    12    13   ar
     6    13     1    1
     7     1     2   ar
     8     2     3   ar
     9     3    19    1
    10    19    20    1
    11    20    21   ar
    12    21    22   ar
    13    22    23   ar
    14    23    24   ar
    15    24    25   ar
    16     3     4   ar
    17     4     5   ar
    18     5     6   ar
    19     6     7   ar
    20     7     8   ar
    21     8     9   ar
    22    13    14   ar
    23    14    10   ar
    24     9     1   ar
    25    25    20   ar
    26     9     4   ar
    27    15    17    1
    28    15    18    1
@<TRIPOS>MOLECULE
*****
 25 28 0 0 0
SMALL
GASTEIGER

@<TRIPOS>ATOM
      1 C          63.6073   88.1919   13.0536 C.ar    1  UNL1        0.1581
      2 N          63.8713   86.9399   13.8365 N.ar    1  UNL1       -0.1641
      3 N          63.2402   85.7934   13.1036 N.ar    1  UNL1       -0.2463
      4 C          62.5861   86.3367   11.8679 C.ar    1  UNL1        0.0799
      5 C          61.8133   85.6732   10.7668 C.ar    1  UNL1        0.0188
      6 C          61.2673   86.4920    9.6349 C.ar    1  UNL1        0.0015
      7 C          61.4942   87.9745    9.6040 C.ar    1  UNL1        0.0001
      8 C          62.2671   88.6380   10.7051 C.ar    1  UNL1        0.0032
      9 C          62.8130   87.8191   11.8370 C.ar    1  UNL1        0.0413
     10 C          64.9778   91.4488   14.6599 C.ar    1  UNL1        0.1965
     11 N          64.5271   91.9533   13.3210 N.ar    1  UNL1       -0.0587
     12 O          63.9589   90.7946   12.5564 O.2     1  UNL1       -0.3311
     13 C          64.0584   89.5741   13.4227 C.ar    1  UNL1        0.2792
     14 N          64.6881   89.9784   14.7226 N.ar    1  UNL1       -0.1884
     15 N          64.7758   92.7609   16.8931 N.3     1  UNL1       -0.3147
     16 C          65.6076   92.2705   15.7453 C.3     1  UNL1        0.1355
     17 H          65.3615   93.2988   17.5320 H       1  UNL1        0.1192
     18 H          64.3758   91.9637   17.3881 H       1  UNL1        0.1192
     19 C          63.2597   84.3558   13.5314 C.3     1  UNL1        0.1538
     20 C          63.3287   83.2676   12.5012 C.ar    1  UNL1        0.0021
     21 C          64.2573   83.4007   11.3307 C.ar    1  UNL1       -0.0023
     22 C          64.3264   82.3126   10.3006 C.ar    1  UNL1       -0.0003
     23 C          63.4669   81.0914   10.4409 C.ar    1  UNL1       -0.0000
     24 C          62.5383   80.9582   11.6114 C.ar    1  UNL1       -0.0003
     25 C          62.4692   82.0463   12.6415 C.ar    1  UNL1       -0.0023
@<TRIPOS>BOND
     1    15    16    1
     2    16    10    1
     3    10    11   ar
     4    11    12   ar
     5    12    13   ar
     6    13     1    1
     7     1     2   ar
     8     2     3   ar
     9     3    19    1
    10    19    20    1
    11    20    21   ar
    12    21    22   ar
    13    22    23   ar
    14    23    24   ar
    15    24    25   ar
    16     3     4   ar
    17     4     5   ar
    18     5     6   ar
    19     6     7   ar
    20     7     8   ar
    21     8     9   ar
    22    13    14   ar
    23    14    10   ar
    24     9     1   ar
    25    25    20   ar
    26     9     4   ar
    27    15    17    1
    28    15    18    1
@<TRIPOS>MOLECULE
*****
 25 28 0 0 0
SMALL
GASTEIGER

@<TRIPOS>ATOM
      1 C          62.9131   88.3921   12.2384 C.ar    1  UNL1        0.1581
      2 N          63.3437   86.9605   12.3616 N.ar    1  UNL1       -0.1641
      3 N          62.6580   86.1757   11.2828 N.ar    1  UNL1       -0.2463
      4 C          61.8035   87.1223   10.4928 C.ar    1  UNL1        0.0799
      5 C          60.9023   86.9138    9.3120 C.ar    1  UNL1        0.0188
      6 C          60.1588   88.0751    8.7218 C.ar    1  UNL1        0.0015
      7 C          60.3165   89.4449    9.3124 C.ar    1  UNL1        0.0001
      8 C          61.2177   89.6534   10.4932 C.ar    1  UNL1        0.0032
      9 C          61.9612   88.4920   11.0834 C.ar    1  UNL1        0.0413
     10 C          63.8312   90.8791   15.0734 C.ar    1  UNL1        0.1965
     11 N          64.2463   91.6569   13.8597 N.ar    1  UNL1       -0.0587
     12 O          63.9529   90.8199   12.6500 O.2     1  UNL1       -0.3311
     13 C          63.3564   89.5248   13.1160 C.ar    1  UNL1        0.2792
     14 N          63.2812   89.5615   14.6136 N.ar    1  UNL1       -0.1884
     15 N          64.5502   92.6758   16.8068 N.3     1  UNL1       -0.3147
     16 C          63.9458   91.3384   16.4966 C.3     1  UNL1        0.1355
     17 H          64.5484   92.8238   17.8160 H       1  UNL1        0.1192
     18 H          64.0039   93.4089   16.3546 H       1  UNL1        0.1192
     19 C          62.8015   84.7030   11.0370 C.3     1  UNL1        0.1538
     20 C          62.6189   83.7328   12.1665 C.ar    1  UNL1        0.0021
     21 C          62.5353   84.2326   13.5783 C.ar    1  UNL1       -0.0023
     22 C          62.3528   83.2626   14.7078 C.ar    1  UNL1       -0.0003
     23 C          62.2539   81.7927   14.4253 C.ar    1  UNL1       -0.0000
     24 C          62.3376   81.2929   13.0135 C.ar    1  UNL1       -0.0003
     25 C          62.5201   82.2630   11.8841 C.ar    1  UNL1       -0.0023
@<TRIPOS>BOND
     1    15    16    1
     2    16    10    1
     3    10    11   ar
     4    11    12   ar
     5    12    13   ar
     6    13     1    1
     7     1     2   ar
     8     2     3   ar
     9     3    19    1
    10    19    20    1
    11    20    21   ar
    12    21    22   ar
    13    22    23   ar
    14    23    24   ar
    15    24    25   ar
    16     3     4   ar
    17     4     5   ar
    18     5     6   ar
    19     6     7   ar
    20     7     8   ar
    21     8     9   ar
    22    13    14   ar
    23    14    10   ar
    24     9     1   ar
    25    25    20   ar
    26     9     4   ar
    27    15    17    1
    28    15    18    1
@<TRIPOS>MOLECULE
*****
 25 28 0 0 0
SMALL
GASTEIGER

@<TRIPOS>ATOM
      1 C          63.7347   87.4686   13.7861 C.ar    1  UNL1        0.1581
      2 N          64.1674   88.4716   14.8141 N.ar    1  UNL1       -0.1641
      3 N          63.9612   89.8420   14.2400 N.ar    1  UNL1       -0.2463
      4 C          63.4011   89.6859   12.8573 C.ar    1  UNL1        0.0799
      5 C          63.0005   90.6899   11.8174 C.ar    1  UNL1        0.0188
      6 C          62.4599   90.2271   10.4970 C.ar    1  UNL1        0.0015
      7 C          62.3199   88.7602   10.2165 C.ar    1  UNL1        0.0001
      8 C          62.7205   87.7562   11.2564 C.ar    1  UNL1        0.0032
      9 C          63.2611   88.2190   12.5767 C.ar    1  UNL1        0.0413
     10 C          63.1148   83.6398   13.9344 C.ar    1  UNL1        0.1965
     11 N          64.5312   83.7232   14.4213 N.ar    1  UNL1       -0.0587
     12 O          64.9357   85.1676   14.4251 O.2     1  UNL1       -0.3311
     13 C          63.7694   85.9769   13.9404 C.ar    1  UNL1        0.2792
     14 N          62.6441   85.0327   13.6372 N.ar    1  UNL1       -0.1884
     15 N          62.6382   81.1727   14.5948 N.3     1  UNL1       -0.3147
     16 C          62.3105   82.3841   13.7731 C.3     1  UNL1        0.1355
     17 H          61.9957   80.4169   14.3574 H       1  UNL1        0.1192
     18 H          62.5463   81.3986   15.5852 H       1  UNL1        0.1192
     19 C          64.2623   91.1405   14.9279 C.3     1  UNL1        0.1538
     20 C          65.6649   91.6721   14.9460 C.ar    1  UNL1        0.0021
     21 C          66.5690   91.4432   13.7712 C.ar    1  UNL1       -0.0023
     22 C          67.9715   91.9747   13.7893 C.ar    1  UNL1       -0.0003
     23 C          68.4700   92.7351   14.9823 C.ar    1  UNL1       -0.0000
     24 C          67.5659   92.9639   16.1572 C.ar    1  UNL1       -0.0003
     25 C          66.1634   92.4324   16.1391 C.ar    1  UNL1       -0.0023
@<TRIPOS>BOND
     1    15    16    1
     2    16    10    1
     3    10    11   ar
     4    11    12   ar
     5    12    13   ar
     6    13     1    1
     7     1     2   ar
     8     2     3   ar
     9     3    19    1
    10    19    20    1
    11    20    21   ar
    12    21    22   ar
    13    22    23   ar
    14    23    24   ar
    15    24    25   ar
    16     3     4   ar
    17     4     5   ar
    18     5     6   ar
    19     6     7   ar
    20     7     8   ar
    21     8     9   ar
    22    13    14   ar
    23    14    10   ar
    24     9     1   ar
    25    25    20   ar
    26     9     4   ar
    27    15    17    1
    28    15    18    1
@<TRIPOS>MOLECULE
*****
 25 28 0 0 0
SMALL
GASTEIGER

@<TRIPOS>ATOM
      1 C          62.3693   87.8354   11.5359 C.ar    1  UNL1        0.1581
      2 N          62.5979   86.4234   11.9876 N.ar    1  UNL1       -0.1641
      3 N          63.4887   86.4612   13.1938 N.ar    1  UNL1       -0.2463
      4 C          63.8108   87.8965   13.4875 C.ar    1  UNL1        0.0799
      5 C          64.6446   88.5398   14.5556 C.ar    1  UNL1        0.0188
      6 C          64.7865   90.0324   14.5991 C.ar    1  UNL1        0.0015
      7 C          64.0946   90.8817   13.5744 C.ar    1  UNL1        0.0001
      8 C          63.2608   90.2384   12.5063 C.ar    1  UNL1        0.0032
      9 C          63.1189   88.7458   12.4629 C.ar    1  UNL1        0.0413
     10 C          59.9814   88.2235    8.5006 C.ar    1  UNL1        0.1965
     11 N          60.5322   89.6140    8.6158 N.ar    1  UNL1       -0.0587
     12 O          61.4937   89.6378    9.7669 O.2     1  UNL1       -0.3311
     13 C          61.5372   88.2621   10.3630 C.ar    1  UNL1        0.2792
     14 N          60.6026   87.3881    9.5805 N.ar    1  UNL1       -0.1884
     15 N          58.3954   86.3764    7.5937 N.3     1  UNL1       -0.3147
     16 C          58.9846   87.7515    7.4841 C.3     1  UNL1        0.1355
     17 H          57.7419   86.2242    6.8254 H       1  UNL1        0.1192
     18 H          57.9022   86.2876    8.4821 H       1  UNL1        0.1192
     19 C          63.9727   85.2724   13.9700 C.3     1  UNL1        0.1538
     20 C          63.4554   83.9026   13.6440 C.ar    1  UNL1        0.0021
     21 C          63.9254   83.1985   12.4057 C.ar    1  UNL1       -0.0023
     22 C          63.4082   81.8288   12.0797 C.ar    1  UNL1       -0.0003
     23 C          62.4209   81.1631   12.9920 C.ar    1  UNL1       -0.0000
     24 C          61.9509   81.8672   14.2303 C.ar    1  UNL1       -0.0003
     25 C          62.4681   83.2369   14.5563 C.ar    1  UNL1       -0.0023
@<TRIPOS>BOND
     1    15    16    1
     2    16    10    1
     3    10    11   ar
     4    11    12   ar
     5    12    13   ar
     6    13     1    1
     7     1     2   ar
     8     2     3   ar
     9     3    19    1
    10    19    20    1
    11    20    21   ar
    12    21    22   ar
    13    22    23   ar
    14    23    24   ar
    15    24    25   ar
    16     3     4   ar
    17     4     5   ar
    18     5     6   ar
    19     6     7   ar
    20     7     8   ar
    21     8     9   ar
    22    13    14   ar
    23    14    10   ar
    24     9     1   ar
    25    25    20   ar
    26     9     4   ar
    27    15    17    1
    28    15    18    1
@<TRIPOS>MOLECULE
*****
 25 28 0 0 0
SMALL
GASTEIGER

@<TRIPOS>ATOM
      1 C          62.9185   86.6613   12.2476 C.ar    1  UNL1        0.1581
      2 N          63.2394   88.0350   12.7576 N.ar    1  UNL1       -0.1641
      3 N          62.5828   89.0317   11.8491 N.ar    1  UNL1       -0.2463
      4 C          61.8561   88.2741   10.7777 C.ar    1  UNL1        0.0799
      5 C          61.0323   88.7290    9.6096 C.ar    1  UNL1        0.0188
      6 C          60.4159   87.7188    8.6879 C.ar    1  UNL1        0.0015
      7 C          60.6234   86.2538    8.9343 C.ar    1  UNL1        0.0001
      8 C          61.4472   85.7989   10.1023 C.ar    1  UNL1        0.0032
      9 C          62.0636   86.8091   11.0240 C.ar    1  UNL1        0.0413
     10 C          63.6986   82.9964   13.2602 C.ar    1  UNL1        0.1965
     11 N          64.4449   83.7545   14.3178 N.ar    1  UNL1       -0.0587
     12 O          64.2434   85.2196   14.0672 O.2     1  UNL1       -0.3311
     13 C          63.3727   85.3671   12.8547 C.ar    1  UNL1        0.2792
     14 N          63.0361   83.9931   12.3560 N.ar    1  UNL1       -0.1884
     15 N          63.1419   80.6727   14.2801 N.3     1  UNL1       -0.3147
     16 C          63.6275   81.5038   13.1297 C.3     1  UNL1        0.1355
     17 H          63.1589   79.6870   14.0184 H       1  UNL1        0.1192
     18 H          62.1880   80.9450   14.5175 H       1  UNL1        0.1192
     19 C          62.6425   90.5241   11.9876 C.3     1  UNL1        0.1538
     20 C          63.9698   91.2155   12.0896 C.ar    1  UNL1        0.0021
     21 C          64.5412   91.9218   10.8961 C.ar    1  UNL1       -0.0023
     22 C          65.8685   92.6131   10.9980 C.ar    1  UNL1       -0.0003
     23 C          66.6244   92.5981   12.2935 C.ar    1  UNL1       -0.0000
     24 C          66.0530   91.8917   13.4871 C.ar    1  UNL1       -0.0003
     25 C          64.7257   91.2004   13.3852 C.ar    1  UNL1       -0.0023
@<TRIPOS>BOND
     1    15    16    1
     2    16    10    1
     3    10    11   ar
     4    11    12   ar
     5    12    13   ar
     6    13     1    1
     7     1     2   ar
     8     2     3   ar
     9     3    19    1
    10    19    20    1
    11    20    21   ar
    12    21    22   ar
    13    22    23   ar
    14    23    24   ar
    15    24    25   ar
    16     3     4   ar
    17     4     5   ar
    18     5     6   ar
    19     6     7   ar
    20     7     8   ar
    21     8     9   ar
    22    13    14   ar
    23    14    10   ar
    24     9     1   ar
    25    25    20   ar
    26     9     4   ar
    27    15    17    1
    28    15    18    1
@<TRIPOS>MOLECULE
*****
 25 28 0 0 0
SMALL
GASTEIGER

@<TRIPOS>ATOM
      1 C          62.7833   87.3811   11.8286 C.ar    1  UNL1        0.1581
      2 N          63.0768   88.7495   12.3686 N.ar    1  UNL1       -0.1641
      3 N          63.8110   88.5879   13.6665 N.ar    1  UNL1       -0.2463
      4 C          63.9713   87.1197   13.9288 C.ar    1  UNL1        0.0799
      5 C          64.6136   86.3656   15.0552 C.ar    1  UNL1        0.0188
      6 C          64.6207   84.8656   15.0456 C.ar    1  UNL1        0.0015
      7 C          63.9855   84.1198   13.9097 C.ar    1  UNL1        0.0001
      8 C          63.3432   84.8739   12.7833 C.ar    1  UNL1        0.0032
      9 C          63.3361   86.3739   12.7929 C.ar    1  UNL1        0.0413
     10 C          60.4486   87.1310    8.7379 C.ar    1  UNL1        0.1965
     11 N          61.4623   86.0714    8.4220 N.ar    1  UNL1       -0.0587
     12 O          62.4602   86.0362    9.5413 O.2     1  UNL1       -0.3311
     13 C          62.0633   87.0739   10.5490 C.ar    1  UNL1        0.2792
     14 N          60.8201   87.7505   10.0525 N.ar    1  UNL1       -0.1884
     15 N          58.2007   86.4935    7.6020 N.3     1  UNL1       -0.3147
     16 C          59.2704   87.5052    7.8885 C.3     1  UNL1        0.1355
     17 H          57.4820   86.9157    7.0142 H       1  UNL1        0.1192
     18 H          57.7832   86.1824    8.4791 H       1  UNL1        0.1192
     19 C          64.2993   89.6993   14.5476 C.3     1  UNL1        0.1538
     20 C          65.1015   90.8234   13.9619 C.ar    1  UNL1        0.0021
     21 C          66.4242   91.1941   14.5644 C.ar    1  UNL1       -0.0023
     22 C          67.2265   92.3182   13.9788 C.ar    1  UNL1       -0.0003
     23 C          66.7059   93.0715   12.7907 C.ar    1  UNL1       -0.0000
     24 C          65.3832   92.7007   12.1882 C.ar    1  UNL1       -0.0003
     25 C          64.5810   91.5767   12.7738 C.ar    1  UNL1       -0.0023
@<TRIPOS>BOND
     1    15    16    1
     2    16    10    1
     3    10    11   ar
     4    11    12   ar
     5    12    13   ar
     6    13     1    1
     7     1     2   ar
     8     2     3   ar
     9     3    19    1
    10    19    20    1
    11    20    21   ar
    12    21    22   ar
    13    22    23   ar
    14    23    24   ar
    15    24    25   ar
    16     3     4   ar
    17     4     5   ar
    18     5     6   ar
    19     6     7   ar
    20     7     8   ar
    21     8     9   ar
    22    13    14   ar
    23    14    10   ar
    24     9     1   ar
    25    25    20   ar
    26     9     4   ar
    27    15    17    1
    28    15    18    1
