@<TRIPOS>MOLECULE
*****
 32 35 0 0 0
SMALL
GASTEIGER

@<TRIPOS>ATOM
      1 C          63.7715   88.2125   14.4500 C.2     1  UNL1        0.2528
      2 O          63.9651   87.8018   13.0204 O.2     1  UNL1       -0.2696
      3 N          63.3521   87.1975   15.4717 N.am    1  UNL1       -0.2486
      4 C          63.1584   87.6082   16.9013 C.3     1  UNL1        0.1458
      5 C          62.7391   86.5932   17.9230 C.3     1  UNL1        0.2272
      6 O          62.5134   85.1675   17.5152 O.3     1  UNL1       -0.4723
      7 C          62.7071   84.7568   16.0856 C.ar    1  UNL1        0.1537
      8 C          62.4814   83.3310   15.6777 C.ar    1  UNL1        0.0574
      9 C          62.6751   82.9203   14.2481 C.ar    1  UNL1        0.0888
     10 N          62.4495   81.4945   13.8402 N.ar    1  UNL1       -0.2238
     11 C          62.6432   81.0838   12.4106 C.ar    1  UNL1        0.2000
     12 N          63.0625   82.0988   11.3889 N.ar    1  UNL1       -0.2089
     13 C          63.2882   83.5245   11.7967 C.ar    1  UNL1        0.1353
     14 C          63.0945   83.9353   13.2264 C.ar    1  UNL1        0.0509
     15 C          63.3201   85.3610   13.6342 C.ar    1  UNL1        0.0223
     16 C          63.1264   85.7718   15.0639 C.ar    1  UNL1        0.0885
     17 C          65.2372   90.3573   14.4163 C.2     1  UNL1       -0.0041
     18 C          63.9971   89.6382   14.8578 C.2     1  UNL1        0.0551
     19 C          65.4628   91.7831   14.8241 C.3     1  UNL1        0.0991
     20 C          65.4124   92.6754   12.3847 C.3     1  UNL1        0.0899
     21 N          65.8850   92.7975   13.8030 N.3     1  UNL1       -0.2665
     22 C          66.7799   93.9340   14.2002 C.3     1  UNL1        0.0899
     23 N          63.7075   84.5395   10.7750 N.pl3   1  UNL1       -0.2978
     24 H          64.6617   84.7480   10.6511 H       1  UNL1        0.1536
     25 C          62.6731   85.2368    9.9421 C.ar    1  UNL1        0.0504
     26 C          62.5723   84.9469    8.4739 C.ar    1  UNL1        0.0170
     27 C          61.5379   85.6442    7.6410 C.ar    1  UNL1        0.0318
     28 C          60.6043   86.6315    8.2763 C.ar    1  UNL1        0.1507
     29 F          59.5699   87.3289    7.4435 F       1  UNL1       -0.2033
     30 C          60.7051   86.9215    9.7446 C.ar    1  UNL1        0.0863
     31 CL         59.7716   87.9088   10.3800 Cl      1  UNL1       -0.0799
     32 C          61.7396   86.2241   10.5775 C.ar    1  UNL1        0.0283
@<TRIPOS>BOND
     1    20    21    1
     2    21    22    1
     3    21    19    1
     4    19    17    1
     5    17    18    2
     6    18     1    1
     7     1     2    2
     8     1     3   am
     9     3     4    1
    10     4     5    1
    11     5     6    1
    12     6     7    1
    13     7     8   ar
    14     8     9   ar
    15     9    10   ar
    16    10    11   ar
    17    11    12   ar
    18    12    13   ar
    19    13    23    1
    20    23    25    1
    21    25    26   ar
    22    26    27   ar
    23    27    28   ar
    24    28    29    1
    25    28    30   ar
    26    30    31    1
    27    30    32   ar
    28    13    14   ar
    29    14    15   ar
    30    15    16   ar
    31    16     3    1
    32    16     7   ar
    33    14     9   ar
    34    32    25   ar
    35    23    24    1
@<TRIPOS>MOLECULE
*****
 32 35 0 0 0
SMALL
GASTEIGER

@<TRIPOS>ATOM
      1 C          62.9050   88.7667   12.6647 C.2     1  UNL1        0.2528
      2 O          63.6533   87.4884   12.4281 O.2     1  UNL1       -0.2696
      3 N          61.8343   89.1974   11.7064 N.am    1  UNL1       -0.2486
      4 C          61.0860   90.4756   11.9430 C.3     1  UNL1        0.1458
      5 C          60.0153   90.9063   10.9848 C.3     1  UNL1        0.2272
      6 O          59.6930   90.0587    9.7900 O.3     1  UNL1       -0.4723
      7 C          60.4413   88.7804    9.5534 C.ar    1  UNL1        0.1537
      8 C          60.1190   87.9327    8.3585 C.ar    1  UNL1        0.0574
      9 C          60.8673   86.6545    8.1220 C.ar    1  UNL1        0.0888
     10 N          60.5450   85.8068    6.9271 N.ar    1  UNL1       -0.2238
     11 C          61.2933   84.5285    6.6906 C.ar    1  UNL1        0.2000
     12 N          62.3640   84.0978    7.6488 N.ar    1  UNL1       -0.2089
     13 C          62.6863   84.9454    8.8436 C.ar    1  UNL1        0.1353
     14 C          61.9380   86.2238    9.0802 C.ar    1  UNL1        0.0509
     15 C          62.2603   87.0714   10.2750 C.ar    1  UNL1        0.0223
     16 C          61.5120   88.3498   10.5116 C.ar    1  UNL1        0.0885
     17 C          64.4737   90.4488   13.8728 C.2     1  UNL1       -0.0041
     18 C          63.2273   89.6143   13.8595 C.2     1  UNL1        0.0551
     19 C          64.7960   91.2964   15.0677 C.3     1  UNL1        0.0991
     20 C          66.1564   93.0099   13.6666 C.3     1  UNL1        0.0899
     21 N          65.8677   92.3422   14.9783 N.3     1  UNL1       -0.2665
     22 C          66.6506   92.7202   16.2008 C.3     1  UNL1        0.0899
     23 N          63.7570   84.5148    9.8019 N.pl3   1  UNL1       -0.2978
     24 H          64.6754   84.8541    9.6987 H       1  UNL1        0.1536
     25 C          63.4283   83.5672   10.9172 C.ar    1  UNL1        0.0504
     26 C          63.4720   82.0866   10.6809 C.ar    1  UNL1        0.0170
     27 C          63.1434   81.1391   11.7962 C.ar    1  UNL1        0.0318
     28 C          62.7710   81.6721   13.1480 C.ar    1  UNL1        0.1507
     29 F          62.4424   80.7246   14.2634 F       1  UNL1       -0.2033
     30 C          62.7273   83.1527   13.3844 C.ar    1  UNL1        0.0863
     31 CL         62.3550   83.6858   14.7361 Cl      1  UNL1       -0.0799
     32 C          63.0560   84.1003   12.2689 C.ar    1  UNL1        0.0283
@<TRIPOS>BOND
     1    20    21    1
     2    21    22    1
     3    21    19    1
     4    19    17    1
     5    17    18    2
     6    18     1    1
     7     1     2    2
     8     1     3   am
     9     3     4    1
    10     4     5    1
    11     5     6    1
    12     6     7    1
    13     7     8   ar
    14     8     9   ar
    15     9    10   ar
    16    10    11   ar
    17    11    12   ar
    18    12    13   ar
    19    13    23    1
    20    23    25    1
    21    25    26   ar
    22    26    27   ar
    23    27    28   ar
    24    28    29    1
    25    28    30   ar
    26    30    31    1
    27    30    32   ar
    28    13    14   ar
    29    14    15   ar
    30    15    16   ar
    31    16     3    1
    32    16     7   ar
    33    14     9   ar
    34    32    25   ar
    35    23    24    1
@<TRIPOS>MOLECULE
*****
 32 35 0 0 0
SMALL
GASTEIGER

@<TRIPOS>ATOM
      1 C          64.5816   90.1765   13.8730 C.2     1  UNL1        0.2528
      2 O          64.0196   88.8227   14.1911 O.2     1  UNL1       -0.2696
      3 N          64.2604   90.8330   12.5631 N.am    1  UNL1       -0.2486
      4 C          64.8224   92.1869   12.2450 C.3     1  UNL1        0.1458
      5 C          64.5012   92.8434   10.9351 C.3     1  UNL1        0.2272
      6 O          63.6181   92.1461    9.9433 O.3     1  UNL1       -0.4723
      7 C          63.0561   90.7922   10.2614 C.ar    1  UNL1        0.1537
      8 C          62.1729   90.0948    9.2696 C.ar    1  UNL1        0.0574
      9 C          61.6109   88.7410    9.5877 C.ar    1  UNL1        0.0888
     10 N          60.7276   88.0436    8.5959 N.ar    1  UNL1       -0.2238
     11 C          60.1657   86.6898    8.9139 C.ar    1  UNL1        0.2000
     12 N          60.4868   86.0332   10.2238 N.ar    1  UNL1       -0.2089
     13 C          61.3700   86.7306   11.2156 C.ar    1  UNL1        0.1353
     14 C          61.9320   88.0845   10.8976 C.ar    1  UNL1        0.0509
     15 C          62.8152   88.7818   11.8894 C.ar    1  UNL1        0.0223
     16 C          63.3773   90.1357   11.5713 C.ar    1  UNL1        0.0885
     17 C          66.9126   91.1046   14.5476 C.2     1  UNL1       -0.0041
     18 C          65.4648   90.8738   14.8648 C.2     1  UNL1        0.0551
     19 C          67.7958   91.8019   15.5395 C.3     1  UNL1        0.0991
     20 C          69.1708   93.9166   16.1620 C.3     1  UNL1        0.0899
     21 N          68.0286   93.2795   15.4276 N.3     1  UNL1       -0.2665
     22 C          67.1191   94.1201   14.5811 C.3     1  UNL1        0.0899
     23 N          61.6912   86.0740   12.5255 N.pl3   1  UNL1       -0.2978
     24 H          61.3348   86.4476   13.3638 H       1  UNL1        0.1536
     25 C          62.5553   84.8484   12.5582 C.ar    1  UNL1        0.0504
     26 C          62.9006   84.2090   13.8704 C.ar    1  UNL1        0.0170
     27 C          63.7648   82.9834   13.9031 C.ar    1  UNL1        0.0318
     28 C          64.2837   82.3972   12.6236 C.ar    1  UNL1        0.1507
     29 F          65.1479   81.1716   12.6563 F       1  UNL1       -0.2033
     30 C          63.9385   83.0367   11.3114 C.ar    1  UNL1        0.0863
     31 CL         64.4573   82.4506   10.0319 Cl      1  UNL1       -0.0799
     32 C          63.0742   84.2623   11.2787 C.ar    1  UNL1        0.0283
@<TRIPOS>BOND
     1    20    21    1
     2    21    22    1
     3    21    19    1
     4    19    17    1
     5    17    18    2
     6    18     1    1
     7     1     2    2
     8     1     3   am
     9     3     4    1
    10     4     5    1
    11     5     6    1
    12     6     7    1
    13     7     8   ar
    14     8     9   ar
    15     9    10   ar
    16    10    11   ar
    17    11    12   ar
    18    12    13   ar
    19    13    23    1
    20    23    25    1
    21    25    26   ar
    22    26    27   ar
    23    27    28   ar
    24    28    29    1
    25    28    30   ar
    26    30    31    1
    27    30    32   ar
    28    13    14   ar
    29    14    15   ar
    30    15    16   ar
    31    16     3    1
    32    16     7   ar
    33    14     9   ar
    34    32    25   ar
    35    23    24    1
@<TRIPOS>MOLECULE
*****
 32 35 0 0 0
SMALL
GASTEIGER

@<TRIPOS>ATOM
      1 C          63.1309   85.8601   13.4245 C.2     1  UNL1        0.2528
      2 O          63.8839   86.8696   14.2392 O.2     1  UNL1       -0.2696
      3 N          62.5671   86.2444   12.0887 N.am    1  UNL1       -0.2486
      4 C          61.8140   85.2350   11.2739 C.3     1  UNL1        0.1458
      5 C          61.2502   85.6193    9.9381 C.3     1  UNL1        0.2272
      6 O          61.4394   87.0130    9.4170 O.3     1  UNL1       -0.4723
      7 C          62.1925   88.0225   10.2318 C.ar    1  UNL1        0.1537
      8 C          62.3817   89.4164    9.7107 C.ar    1  UNL1        0.0574
      9 C          63.1348   90.4258   10.5255 C.ar    1  UNL1        0.0888
     10 N          63.3240   91.8197   10.0044 N.ar    1  UNL1       -0.2238
     11 C          64.0771   92.8291   10.8191 C.ar    1  UNL1        0.2000
     12 N          64.6409   92.4448   12.1549 N.ar    1  UNL1       -0.2089
     13 C          64.4517   91.0510   12.6760 C.ar    1  UNL1        0.1353
     14 C          63.6986   90.0415   11.8613 C.ar    1  UNL1        0.0509
     15 C          63.5094   88.6477   12.3823 C.ar    1  UNL1        0.0223
     16 C          62.7563   87.6382   11.5676 C.ar    1  UNL1        0.0885
     17 C          63.8398   83.3612   13.4746 C.2     1  UNL1       -0.0041
     18 C          62.9417   84.4664   13.9456 C.2     1  UNL1        0.0551
     19 C          63.6506   81.9673   13.9957 C.3     1  UNL1        0.0991
     20 C          62.7635   80.2772   12.2332 C.3     1  UNL1        0.0899
     21 N          62.5417   81.1106   13.4604 N.3     1  UNL1       -0.2665
     22 C          61.2110   81.0874   14.1524 C.3     1  UNL1        0.0899
     23 N          65.0155   90.6667   14.0118 N.pl3   1  UNL1       -0.2978
     24 H          64.6437   89.8969   14.5001 H       1  UNL1        0.1536
     25 C          66.1459   91.4553   14.6038 C.ar    1  UNL1        0.0504
     26 C          65.9303   92.2496   15.8578 C.ar    1  UNL1        0.0170
     27 C          67.0606   93.0382   16.4498 C.ar    1  UNL1        0.0318
     28 C          68.4067   93.0325   15.7877 C.ar    1  UNL1        0.1507
     29 F          69.5370   93.8210   16.3796 F       1  UNL1       -0.2033
     30 C          68.6222   92.2382   14.5336 C.ar    1  UNL1        0.0863
     31 CL         69.9681   92.2324   13.8715 Cl      1  UNL1       -0.0799
     32 C          67.4918   91.4496   13.9417 C.ar    1  UNL1        0.0283
@<TRIPOS>BOND
     1    20    21    1
     2    21    22    1
     3    21    19    1
     4    19    17    1
     5    17    18    2
     6    18     1    1
     7     1     2    2
     8     1     3   am
     9     3     4    1
    10     4     5    1
    11     5     6    1
    12     6     7    1
    13     7     8   ar
    14     8     9   ar
    15     9    10   ar
    16    10    11   ar
    17    11    12   ar
    18    12    13   ar
    19    13    23    1
    20    23    25    1
    21    25    26   ar
    22    26    27   ar
    23    27    28   ar
    24    28    29    1
    25    28    30   ar
    26    30    31    1
    27    30    32   ar
    28    13    14   ar
    29    14    15   ar
    30    15    16   ar
    31    16     3    1
    32    16     7   ar
    33    14     9   ar
    34    32    25   ar
    35    23    24    1
@<TRIPOS>MOLECULE
*****
 32 35 0 0 0
SMALL
GASTEIGER

@<TRIPOS>ATOM
      1 C          62.9540   90.4672   10.5858 C.2     1  UNL1        0.2528
      2 O          63.4833   91.8576   10.3943 O.2     1  UNL1       -0.2696
      3 N          63.3413   89.6781   11.8013 N.am    1  UNL1       -0.2486
      4 C          62.8121   88.2877   11.9928 C.3     1  UNL1        0.1458
      5 C          63.1993   87.4985   13.2082 C.3     1  UNL1        0.2272
      6 O          64.1158   88.0998   14.2321 O.3     1  UNL1       -0.4723
      7 C          64.6451   89.4901   14.0406 C.ar    1  UNL1        0.1537
      8 C          65.5616   90.0915   15.0646 C.ar    1  UNL1        0.0574
      9 C          66.0909   91.4818   14.8731 C.ar    1  UNL1        0.0888
     10 N          67.0074   92.0831   15.8971 N.ar    1  UNL1       -0.2238
     11 C          67.5367   93.4735   15.7056 C.ar    1  UNL1        0.2000
     12 N          67.1494   94.2626   14.4901 N.ar    1  UNL1       -0.2089
     13 C          66.2329   93.6614   13.4662 C.ar    1  UNL1        0.1353
     14 C          65.7036   92.2710   13.6577 C.ar    1  UNL1        0.0509
     15 C          64.7871   91.6697   12.6337 C.ar    1  UNL1        0.0223
     16 C          64.2578   90.2793   12.8252 C.ar    1  UNL1        0.0885
     17 C          60.6582   89.4271    9.9555 C.2     1  UNL1       -0.0041
     18 C          62.0375   89.8660    9.5619 C.2     1  UNL1        0.0551
     19 C          59.7417   88.8259    8.9315 C.3     1  UNL1        0.0991
     20 C          60.7243   86.4729    9.4293 C.3     1  UNL1        0.0899
     21 N          59.8078   87.3567    8.6363 N.3     1  UNL1       -0.2665
     22 C          58.9575   86.7713    7.5480 C.3     1  UNL1        0.0899
     23 N          65.8456   94.4506   12.2508 N.pl3   1  UNL1       -0.2978
     24 H          65.1155   95.1089   12.3033 H       1  UNL1        0.1536
     25 C          66.5708   94.2367   10.9553 C.ar    1  UNL1        0.0504
     26 C          67.1548   92.8925   10.6356 C.ar    1  UNL1        0.0170
     27 C          67.8799   92.6787    9.3401 C.ar    1  UNL1        0.0318
     28 C          68.0212   93.8091    8.3642 C.ar    1  UNL1        0.1507
     29 F          68.7463   93.5952    7.0687 F       1  UNL1       -0.2033
     30 C          67.4372   95.1533    8.6838 C.ar    1  UNL1        0.0863
     31 CL         67.5784   96.2836    7.7080 Cl      1  UNL1       -0.0799
     32 C          66.7120   95.3671    9.9794 C.ar    1  UNL1        0.0283
@<TRIPOS>BOND
     1    20    21    1
     2    21    22    1
     3    21    19    1
     4    19    17    1
     5    17    18    2
     6    18     1    1
     7     1     2    2
     8     1     3   am
     9     3     4    1
    10     4     5    1
    11     5     6    1
    12     6     7    1
    13     7     8   ar
    14     8     9   ar
    15     9    10   ar
    16    10    11   ar
    17    11    12   ar
    18    12    13   ar
    19    13    23    1
    20    23    25    1
    21    25    26   ar
    22    26    27   ar
    23    27    28   ar
    24    28    29    1
    25    28    30   ar
    26    30    31    1
    27    30    32   ar
    28    13    14   ar
    29    14    15   ar
    30    15    16   ar
    31    16     3    1
    32    16     7   ar
    33    14     9   ar
    34    32    25   ar
    35    23    24    1
@<TRIPOS>MOLECULE
*****
 32 35 0 0 0
SMALL
GASTEIGER

@<TRIPOS>ATOM
      1 C          61.2775   89.3334    9.3860 C.2     1  UNL1        0.2528
      2 O          61.8440   90.7185    9.4884 O.2     1  UNL1       -0.2696
      3 N          61.6511   88.2934   10.4003 N.am    1  UNL1       -0.2486
      4 C          61.0846   86.9083   10.2979 C.3     1  UNL1        0.1458
      5 C          61.4583   85.8682   11.3122 C.3     1  UNL1        0.2272
      6 O          62.3984   86.2133   12.4288 O.3     1  UNL1       -0.4723
      7 C          62.9650   87.5984   12.5312 C.ar    1  UNL1        0.1537
      8 C          63.9052   87.9435   13.6479 C.ar    1  UNL1        0.0574
      9 C          64.4717   89.3286   13.7503 C.ar    1  UNL1        0.0888
     10 N          65.4120   89.6737   14.8670 N.ar    1  UNL1       -0.2238
     11 C          65.9785   91.0588   14.9693 C.ar    1  UNL1        0.2000
     12 N          65.6048   92.0989   13.9551 N.ar    1  UNL1       -0.2089
     13 C          64.6646   91.7538   12.8384 C.ar    1  UNL1        0.1353
     14 C          64.0981   90.3686   12.7360 C.ar    1  UNL1        0.0509
     15 C          63.1579   90.0236   11.6194 C.ar    1  UNL1        0.0223
     16 C          62.5913   88.6384   11.5169 C.ar    1  UNL1        0.0885
     17 C          59.8261   90.0656    7.3594 C.2     1  UNL1       -0.0041
     18 C          60.3373   88.9883    8.2694 C.2     1  UNL1        0.0551
     19 C          58.8859   89.7205    6.2427 C.3     1  UNL1        0.0991
     20 C          56.8524   90.9319    5.1716 C.3     1  UNL1        0.0899
     21 N          58.3344   90.8044    5.3646 N.3     1  UNL1       -0.2665
     22 C          59.2650   91.7608    4.6795 C.3     1  UNL1        0.0899
     23 N          64.2910   92.7938   11.8242 N.pl3   1  UNL1       -0.2978
     24 H          63.3510   93.0692   11.7249 H       1  UNL1        0.1536
     25 C          65.3494   93.4143   10.9613 C.ar    1  UNL1        0.0504
     26 C          65.3118   94.8850   10.6689 C.ar    1  UNL1        0.0170
     27 C          66.3703   95.5055    9.8060 C.ar    1  UNL1        0.0318
     28 C          67.4664   94.6552    9.2354 C.ar    1  UNL1        0.1507
     29 F          68.5249   95.2756    8.3725 F       1  UNL1       -0.2033
     30 C          67.5041   93.1844    9.5278 C.ar    1  UNL1        0.0863
     31 CL         68.6002   92.3341    8.9573 Cl      1  UNL1       -0.0799
     32 C          66.4455   92.5640   10.3908 C.ar    1  UNL1        0.0283
@<TRIPOS>BOND
     1    20    21    1
     2    21    22    1
     3    21    19    1
     4    19    17    1
     5    17    18    2
     6    18     1    1
     7     1     2    2
     8     1     3   am
     9     3     4    1
    10     4     5    1
    11     5     6    1
    12     6     7    1
    13     7     8   ar
    14     8     9   ar
    15     9    10   ar
    16    10    11   ar
    17    11    12   ar
    18    12    13   ar
    19    13    23    1
    20    23    25    1
    21    25    26   ar
    22    26    27   ar
    23    27    28   ar
    24    28    29    1
    25    28    30   ar
    26    30    31    1
    27    30    32   ar
    28    13    14   ar
    29    14    15   ar
    30    15    16   ar
    31    16     3    1
    32    16     7   ar
    33    14     9   ar
    34    32    25   ar
    35    23    24    1
@<TRIPOS>MOLECULE
*****
 32 35 0 0 0
SMALL
GASTEIGER

@<TRIPOS>ATOM
      1 C          60.5554   89.3385    9.3245 C.2     1  UNL1        0.2528
      2 O          61.0642   90.1464   10.4813 O.2     1  UNL1       -0.2696
      3 N          60.8569   87.8714    9.2440 N.am    1  UNL1       -0.2486
      4 C          60.3481   87.0635    8.0871 C.3     1  UNL1        0.1458
      5 C          60.6496   85.5963    8.0067 C.3     1  UNL1        0.2272
      6 O          61.4599   84.9370    9.0831 O.3     1  UNL1       -0.4723
      7 C          61.9687   85.7449   10.2400 C.ar    1  UNL1        0.1537
      8 C          62.7791   85.0856   11.3165 C.ar    1  UNL1        0.0574
      9 C          63.2879   85.8935   12.4733 C.ar    1  UNL1        0.0888
     10 N          64.0982   85.2343   13.5498 N.ar    1  UNL1       -0.2238
     11 C          64.6070   86.0422   14.7067 C.ar    1  UNL1        0.2000
     12 N          64.3055   87.5093   14.7871 N.ar    1  UNL1       -0.2089
     13 C          63.4952   88.1686   13.7107 C.ar    1  UNL1        0.1353
     14 C          62.9863   87.3607   12.5538 C.ar    1  UNL1        0.0509
     15 C          62.1760   88.0200   11.4774 C.ar    1  UNL1        0.0223
     16 C          61.6672   87.2121   10.3204 C.ar    1  UNL1        0.0885
     17 C          59.6819   89.3900    6.8782 C.2     1  UNL1       -0.0041
     18 C          59.7451   89.9978    8.2481 C.2     1  UNL1        0.0551
     19 C          58.8716   90.0494    5.8017 C.3     1  UNL1        0.0991
     20 C          60.9351   91.1921    4.7127 C.3     1  UNL1        0.0899
     21 N          59.4626   91.1692    4.9976 N.3     1  UNL1       -0.2665
     22 C          58.5811   92.2663    4.4784 C.3     1  UNL1        0.0899
     23 N          63.1937   89.6358   13.7912 N.pl3   1  UNL1       -0.2978
     24 H          62.3571   89.9442   14.2086 H       1  UNL1        0.1536
     25 C          64.1667   90.6330   13.2357 C.ar    1  UNL1        0.0504
     26 C          63.9239   91.2482   11.8894 C.ar    1  UNL1        0.0170
     27 C          64.8969   92.2454   11.3339 C.ar    1  UNL1        0.0318
     28 C          66.1130   92.6275   12.1247 C.ar    1  UNL1        0.1507
     29 F          67.0861   93.6247   11.5692 F       1  UNL1       -0.2033
     30 C          66.3559   92.0123   13.4710 C.ar    1  UNL1        0.0863
     31 CL         67.5719   92.3943   14.2618 Cl      1  UNL1       -0.0799
     32 C          65.3827   91.0150   14.0265 C.ar    1  UNL1        0.0283
@<TRIPOS>BOND
     1    20    21    1
     2    21    22    1
     3    21    19    1
     4    19    17    1
     5    17    18    2
     6    18     1    1
     7     1     2    2
     8     1     3   am
     9     3     4    1
    10     4     5    1
    11     5     6    1
    12     6     7    1
    13     7     8   ar
    14     8     9   ar
    15     9    10   ar
    16    10    11   ar
    17    11    12   ar
    18    12    13   ar
    19    13    23    1
    20    23    25    1
    21    25    26   ar
    22    26    27   ar
    23    27    28   ar
    24    28    29    1
    25    28    30   ar
    26    30    31    1
    27    30    32   ar
    28    13    14   ar
    29    14    15   ar
    30    15    16   ar
    31    16     3    1
    32    16     7   ar
    33    14     9   ar
    34    32    25   ar
    35    23    24    1
@<TRIPOS>MOLECULE
*****
 32 35 0 0 0
SMALL
GASTEIGER

@<TRIPOS>ATOM
      1 C          60.4018   87.6125    9.1407 C.2     1  UNL1        0.2528
      2 O          60.7953   86.1763    9.3210 O.2     1  UNL1       -0.2696
      3 N          60.9344   88.6589   10.0741 N.am    1  UNL1       -0.2486
      4 C          60.5409   90.0951    9.8939 C.3     1  UNL1        0.1458
      5 C          61.0735   91.1415   10.8273 C.3     1  UNL1        0.2272
      6 O          61.9996   90.7518   11.9410 O.3     1  UNL1       -0.4723
      7 C          62.3931   89.3157   12.1212 C.ar    1  UNL1        0.1537
      8 C          63.3193   88.9259   13.2350 C.ar    1  UNL1        0.0574
      9 C          63.7128   87.4897   13.4153 C.ar    1  UNL1        0.0888
     10 N          64.6390   87.0999   14.5290 N.ar    1  UNL1       -0.2238
     11 C          65.0325   85.6638   14.7093 C.ar    1  UNL1        0.2000
     12 N          64.4999   84.6173   13.7758 N.ar    1  UNL1       -0.2089
     13 C          63.5738   85.0071   12.6622 C.ar    1  UNL1        0.1353
     14 C          63.1802   86.4433   12.4818 C.ar    1  UNL1        0.0509
     15 C          62.2541   86.8330   11.3681 C.ar    1  UNL1        0.0223
     16 C          61.8605   88.2692   11.1878 C.ar    1  UNL1        0.0885
     17 C          59.7758   89.2102    7.1900 C.2     1  UNL1       -0.0041
     18 C          59.4756   88.0022    8.0270 C.2     1  UNL1        0.0551
     19 C          58.8496   89.5999    6.0762 C.3     1  UNL1        0.0991
     20 C          60.5289   91.1781    4.8766 C.3     1  UNL1        0.0899
     21 N          59.1228   90.8358    5.2713 N.3     1  UNL1       -0.2665
     22 C          57.9900   91.7294    4.8611 C.3     1  UNL1        0.0899
     23 N          63.0411   83.9606   11.7287 N.pl3   1  UNL1       -0.2978
     24 H          62.8662   84.1848   10.7862 H       1  UNL1        0.1536
     25 C          62.7751   82.5726   12.2313 C.ar    1  UNL1        0.0504
     26 C          62.3476   82.3589   13.6531 C.ar    1  UNL1        0.0170
     27 C          62.0816   80.9709   14.1557 C.ar    1  UNL1        0.0318
     28 C          62.2431   79.7965   13.2365 C.ar    1  UNL1        0.1507
     29 F          61.9771   78.4085   13.7391 F       1  UNL1       -0.2033
     30 C          62.6707   80.0103   11.8147 C.ar    1  UNL1        0.0863
     31 CL         62.8322   78.8360   10.8955 Cl      1  UNL1       -0.0799
     32 C          62.9367   81.3984   11.3121 C.ar    1  UNL1        0.0283
@<TRIPOS>BOND
     1    20    21    1
     2    21    22    1
     3    21    19    1
     4    19    17    1
     5    17    18    2
     6    18     1    1
     7     1     2    2
     8     1     3   am
     9     3     4    1
    10     4     5    1
    11     5     6    1
    12     6     7    1
    13     7     8   ar
    14     8     9   ar
    15     9    10   ar
    16    10    11   ar
    17    11    12   ar
    18    12    13   ar
    19    13    23    1
    20    23    25    1
    21    25    26   ar
    22    26    27   ar
    23    27    28   ar
    24    28    29    1
    25    28    30   ar
    26    30    31    1
    27    30    32   ar
    28    13    14   ar
    29    14    15   ar
    30    15    16   ar
    31    16     3    1
    32    16     7   ar
    33    14     9   ar
    34    32    25   ar
    35    23    24    1
@<TRIPOS>MOLECULE
*****
 32 35 0 0 0
SMALL
GASTEIGER

@<TRIPOS>ATOM
      1 C          63.3138   89.7991   11.8472 C.2     1  UNL1        0.2528
      2 O          64.0808   89.0548   12.8996 O.2     1  UNL1       -0.2696
      3 N          62.4444   89.0495   10.8817 N.am    1  UNL1       -0.2486
      4 C          61.6775   89.7938    9.8292 C.3     1  UNL1        0.1458
      5 C          60.8081   89.0441    8.8637 C.3     1  UNL1        0.2272
      6 O          60.7056   87.5502    8.9507 O.3     1  UNL1       -0.4723
      7 C          61.4726   86.8059   10.0032 C.ar    1  UNL1        0.1537
      8 C          61.3702   85.3119   10.0902 C.ar    1  UNL1        0.0574
      9 C          62.1371   84.5676   11.1427 C.ar    1  UNL1        0.0888
     10 N          62.0347   83.0736   11.2297 N.ar    1  UNL1       -0.2238
     11 C          62.8016   82.3293   12.2822 C.ar    1  UNL1        0.2000
     12 N          63.6710   83.0789   13.2477 N.ar    1  UNL1       -0.2089
     13 C          63.7735   84.5729   13.1607 C.ar    1  UNL1        0.1353
     14 C          63.0065   85.3172   12.1082 C.ar    1  UNL1        0.0509
     15 C          63.1090   86.8112   12.0212 C.ar    1  UNL1        0.0223
     16 C          62.3420   87.5556   10.9687 C.ar    1  UNL1        0.0885
     17 C          64.6824   91.9307   11.2701 C.2     1  UNL1       -0.0041
     18 C          63.4163   91.2931   11.7602 C.2     1  UNL1        0.0551
     19 C          64.7848   93.4248   11.1831 C.3     1  UNL1        0.0991
     20 C          66.5392   93.8023   13.0618 C.3     1  UNL1        0.0899
     21 N          66.0089   94.1237   11.6960 N.3     1  UNL1       -0.2665
     22 C          66.7027   95.1442   10.8431 C.3     1  UNL1        0.0899
     23 N          64.6429   85.3225   14.1262 N.pl3   1  UNL1       -0.2978
     24 H          65.6021   85.4383   13.9373 H       1  UNL1        0.1536
     25 C          64.0508   85.8958   15.3795 C.ar    1  UNL1        0.0504
     26 C          63.5761   84.9825   16.4706 C.ar    1  UNL1        0.0170
     27 C          62.9840   85.5558   17.7239 C.ar    1  UNL1        0.0318
     28 C          62.8666   87.0424   17.8861 C.ar    1  UNL1        0.1507
     29 F          62.2745   87.6157   19.1393 F       1  UNL1       -0.2033
     30 C          63.3412   87.9557   16.7949 C.ar    1  UNL1        0.0863
     31 CL         63.2238   89.4422   16.9570 Cl      1  UNL1       -0.0799
     32 C          63.9334   87.3823   15.5416 C.ar    1  UNL1        0.0283
@<TRIPOS>BOND
     1    20    21    1
     2    21    22    1
     3    21    19    1
     4    19    17    1
     5    17    18    2
     6    18     1    1
     7     1     2    2
     8     1     3   am
     9     3     4    1
    10     4     5    1
    11     5     6    1
    12     6     7    1
    13     7     8   ar
    14     8     9   ar
    15     9    10   ar
    16    10    11   ar
    17    11    12   ar
    18    12    13   ar
    19    13    23    1
    20    23    25    1
    21    25    26   ar
    22    26    27   ar
    23    27    28   ar
    24    28    29    1
    25    28    30   ar
    26    30    31    1
    27    30    32   ar
    28    13    14   ar
    29    14    15   ar
    30    15    16   ar
    31    16     3    1
    32    16     7   ar
    33    14     9   ar
    34    32    25   ar
    35    23    24    1
