@<TRIPOS>MOLECULE
*****
 67 74 0 0 0
SMALL
GASTEIGER

@<TRIPOS>ATOM
      1 N          64.0167   86.1411   15.8379 N.3     1  UNL1       -0.1862
      2 C          64.1749   84.6742   16.1081 C.3     1  UNL1        0.1775
      3 C          63.9589   83.6808   15.0052 C.2     1  UNL1        0.2452
      4 O          64.1171   82.2138   15.2754 O.2     1  UNL1       -0.2732
      5 N          63.5847   84.1544   13.6320 N.am    1  UNL1       -0.2541
      6 C          63.3688   83.1610   12.5290 C.3     1  UNL1        0.1577
      7 C          62.9946   83.6345   11.1558 C.2     1  UNL1        0.2445
      8 O          62.7786   82.6411   10.0528 O.2     1  UNL1       -0.2731
      9 N          62.8364   85.1015   10.8855 N.am    1  UNL1       -0.2705
     10 C          63.0523   86.0949   11.9885 C.3     1  UNL1        0.1359
     11 C          63.4265   85.6213   13.3618 C.3     1  UNL1        0.1908
     12 N          63.6425   86.6147   14.4647 N.am    1  UNL1       -0.1863
     13 C          63.4843   88.0817   14.1944 C.2     1  UNL1        0.3191
     14 O          63.1101   88.5552   12.8213 O.2     1  UNL1       -0.2512
     15 N          63.7002   89.0750   15.2974 N.am    1  UNL1       -0.2836
     16 H          63.9458   88.7642   16.1987 H       1  UNL1        0.1513
     17 C          64.2326   87.1345   16.9409 C.3     1  UNL1        0.1188
     18 C          61.7266   86.9595   17.6034 C.2     1  UNL1       -0.0034
     19 C          63.1090   87.4747   17.8744 C.2     1  UNL1       -0.0071
     20 C          63.5270   81.6941   12.7992 C.3     1  UNL1        0.0556
     21 C          62.3432   80.8784   13.2275 C.ar    1  UNL1       -0.0198
     22 C          61.1191   81.5581   13.7654 C.ar    1  UNL1       -0.0011
     23 C          59.9354   80.7424   14.1937 C.ar    1  UNL1        0.0363
     24 C          59.9758   79.2470   14.0840 C.ar    1  UNL1        0.1337
     25 O          58.7920   78.4313   14.5123 O.3     1  UNL1       -0.5055
     26 C          61.1999   78.5672   13.5461 C.ar    1  UNL1        0.0363
     27 C          62.3837   79.3829   13.1178 C.ar    1  UNL1       -0.0011
     28 H          58.0273   78.8559   14.8483 H       1  UNL1        0.2922
     29 C          62.4622   85.5750    9.5123 C.3     1  UNL1        0.1217
     30 C          61.9851   86.9825    9.3084 C.ar    1  UNL1        0.0135
     31 C          62.4802   88.0794   10.2038 C.ar    1  UNL1       -0.0012
     32 C          62.0032   89.4868    9.9999 C.ar    1  UNL1       -0.0002
     33 C          61.0311   89.7973    8.9006 C.ar    1  UNL1        0.0016
     34 C          60.5360   88.7005    8.0052 C.ar    1  UNL1        0.0214
     35 C          59.5829   88.7036    6.8469 C.ar    1  UNL1        0.0721
     36 C          59.4709   87.2982    6.3350 C.ar    1  UNL1        0.0805
     37 N          60.3548   86.4264    7.1768 N.ar    1  UNL1       -0.3241
     38 C          60.5467   84.9476    7.0149 C.3     1  UNL1        0.1305
     39 C          61.0130   87.2931    8.2091 C.ar    1  UNL1        0.0577
     40 C          58.8674   89.9020    6.2971 C.2     1  UNL1        0.2505
     41 O          57.4825   90.2309    6.7701 O.2     1  UNL1       -0.2699
     42 N          59.5369   90.7713    5.2744 N.am    1  UNL1       -0.2759
     43 C          58.8216   91.9696    4.7246 C.3     1  UNL1        0.0954
     44 C          59.4911   92.8389    3.7019 C.3     1  UNL1        0.0411
     45 C          60.8761   92.5100    3.2289 C.3     1  UNL1        0.0753
     46 C          61.5915   91.3117    3.7788 C.3     1  UNL1        0.0411
     47 C          60.9220   90.4423    4.8015 C.3     1  UNL1        0.0954
     48 N          61.5456   93.3794    2.2062 N.am    1  UNL1       -0.3024
     49 C          61.6340   92.9263    0.7790 C.2     1  UNL1        0.2458
     50 O          61.0530   91.6039    0.3746 O.2     1  UNL1       -0.2701
     51 H          61.9269   94.2473    2.4717 H       1  UNL1        0.1497
     52 C          62.3035   93.7957   -0.2437 C.ar    1  UNL1        0.0534
     53 C          61.6944   93.9577   -1.6048 C.ar    1  UNL1        0.0058
     54 C          62.3639   94.8271   -2.6275 C.ar    1  UNL1        0.0147
     55 C          63.6426   95.5344   -2.2891 C.ar    1  UNL1        0.0479
     56 C          64.2518   95.3724   -0.9279 C.ar    1  UNL1        0.0147
     57 C          63.5823   94.5030    0.0948 C.ar    1  UNL1        0.0058
     58 N          64.3121   96.4038   -3.3118 N.pl3   1  UNL1       -0.3041
     59 C          65.7378   96.8278   -3.1181 C.3     1  UNL1        0.1122
     60 C          63.5559   96.8491   -4.5283 C.3     1  UNL1        0.1122
     61 C          63.5420   90.5420   15.0272 C.3     1  UNL1        0.1177
     62 C          64.6143   91.2888   14.2907 C.ar    1  UNL1       -0.0025
     63 C          65.9416   91.5344   14.9447 C.ar    1  UNL1       -0.0026
     64 C          67.0139   92.2813   14.2081 C.ar    1  UNL1       -0.0003
     65 C          66.7588   92.7826   12.8176 C.ar    1  UNL1       -0.0000
     66 C          65.4313   92.5370   12.1636 C.ar    1  UNL1       -0.0003
     67 C          64.3591   91.7902   12.9001 C.ar    1  UNL1       -0.0026
@<TRIPOS>BOND
     1    18    19    2
     2    19    17    1
     3    17     1    1
     4     1     2    1
     5     2     3    1
     6     3     4    2
     7     3     5   am
     8     5     6    1
     9     6    20    1
    10    20    21    1
    11    21    22   ar
    12    22    23   ar
    13    23    24   ar
    14    24    25    1
    15    24    26   ar
    16    26    27   ar
    17     6     7    1
    18     7     8    2
    19     7     9   am
    20     9    29    1
    21    29    30    1
    22    30    31   ar
    23    31    32   ar
    24    32    33   ar
    25    33    34   ar
    26    34    35   ar
    27    35    40    1
    28    40    41    2
    29    40    42   am
    30    42    43    1
    31    43    44    1
    32    44    45    1
    33    45    48    1
    34    48    49   am
    35    49    50    2
    36    49    52    1
    37    52    53   ar
    38    53    54   ar
    39    54    55   ar
    40    55    58    1
    41    58    59    1
    42    58    60    1
    43    55    56   ar
    44    56    57   ar
    45    45    46    1
    46    46    47    1
    47    35    36   ar
    48    36    37   ar
    49    37    38    1
    50    37    39   ar
    51     9    10    1
    52    11    10    1
    53    11    12    1
    54    12    13   am
    55    13    14    2
    56    13    15   am
    57    15    61    1
    58    61    62    1
    59    62    63   ar
    60    63    64   ar
    61    64    65   ar
    62    65    66   ar
    63    66    67   ar
    64    12     1    1
    65    67    62   ar
    66    11     5    1
    67    27    21   ar
    68    39    30   ar
    69    39    34   ar
    70    47    42    1
    71    57    52   ar
    72    25    28    1
    73    48    51    1
    74    15    16    1
@<TRIPOS>MOLECULE
*****
 67 74 0 0 0
SMALL
GASTEIGER

@<TRIPOS>ATOM
      1 N          63.4118   86.1534   15.8268 N.3     1  UNL1       -0.1862
      2 C          63.3986   84.6894   16.1527 C.3     1  UNL1        0.1775
      3 C          63.4706   83.6749   15.0501 C.2     1  UNL1        0.2452
      4 O          63.4574   82.2107   15.3761 O.2     1  UNL1       -0.2732
      5 N          63.5558   84.1244   13.6217 N.am    1  UNL1       -0.2541
      6 C          63.6278   83.1100   12.5191 C.3     1  UNL1        0.1577
      7 C          63.7130   83.5595   11.0907 C.2     1  UNL1        0.2445
      8 O          63.7850   82.5450    9.9881 O.2     1  UNL1       -0.2731
      9 N          63.7262   85.0237   10.7647 N.am    1  UNL1       -0.2705
     10 C          63.6543   86.0382   11.8672 C.3     1  UNL1        0.1359
     11 C          63.5690   85.5885   13.2958 C.3     1  UNL1        0.1908
     12 N          63.4970   86.6030   14.3983 N.am    1  UNL1       -0.1863
     13 C          63.5103   88.0672   14.0723 C.2     1  UNL1        0.3191
     14 O          63.5955   88.5167   12.6439 O.2     1  UNL1       -0.2512
     15 N          63.4383   89.0816   15.1749 N.am    1  UNL1       -0.2836
     16 H          63.3823   88.7865   16.1125 H       1  UNL1        0.1513
     17 C          63.3398   87.1679   16.9293 C.3     1  UNL1        0.1188
     18 C          62.7598   86.9798   19.4548 C.2     1  UNL1       -0.0034
     19 C          62.3218   87.0185   18.0207 C.2     1  UNL1       -0.0071
     20 C          63.6146   81.6459   12.8450 C.3     1  UNL1        0.0556
     21 C          62.3461   80.9916   13.3062 C.ar    1  UNL1       -0.0198
     22 C          61.1102   81.8155   13.5151 C.ar    1  UNL1       -0.0011
     23 C          59.8416   81.1612   13.9762 C.ar    1  UNL1        0.0363
     24 C          59.8090   79.6830   14.2285 C.ar    1  UNL1        0.1337
     25 O          58.5404   79.0287   14.6897 O.3     1  UNL1       -0.5055
     26 C          61.0449   78.8590   14.0196 C.ar    1  UNL1        0.0363
     27 C          62.3134   79.5133   13.5585 C.ar    1  UNL1       -0.0011
     28 H          57.7684   79.5434   14.8201 H       1  UNL1        0.2922
     29 C          63.8115   85.4733    9.3362 C.3     1  UNL1        0.1217
     30 C          62.5598   85.6403    8.5265 C.ar    1  UNL1        0.0135
     31 C          62.0434   84.5001    7.7000 C.ar    1  UNL1       -0.0012
     32 C          60.7918   84.6671    6.8904 C.ar    1  UNL1       -0.0002
     33 C          60.0566   85.9744    6.9073 C.ar    1  UNL1        0.0016
     34 C          60.5729   87.1147    7.7338 C.ar    1  UNL1        0.0214
     35 C          60.0660   88.5102    7.9467 C.ar    1  UNL1        0.0721
     36 C          61.0043   89.2057    8.8880 C.ar    1  UNL1        0.0805
     37 N          62.0911   88.2400    9.2567 N.ar    1  UNL1       -0.3241
     38 C          63.2424   88.5178   10.1772 C.3     1  UNL1        0.1305
     39 C          61.8245   86.9476    8.5434 C.ar    1  UNL1        0.0577
     40 C          58.8365   89.1058    7.3272 C.2     1  UNL1        0.2505
     41 O          57.4821   88.7741    7.8801 O.2     1  UNL1       -0.2699
     42 N          58.9614   90.0331    6.1547 N.am    1  UNL1       -0.2759
     43 C          57.7320   90.6286    5.5352 C.3     1  UNL1        0.0954
     44 C          57.8570   91.5559    4.3627 C.3     1  UNL1        0.0411
     45 C          59.2113   91.8876    3.8098 C.3     1  UNL1        0.0753
     46 C          60.4407   91.2920    4.4295 C.3     1  UNL1        0.0411
     47 C          60.3158   90.3647    5.6019 C.3     1  UNL1        0.0954
     48 N          59.3362   92.8149    2.6374 N.am    1  UNL1       -0.3024
     49 C          60.4875   92.6709    1.6867 C.2     1  UNL1        0.2458
     50 O          61.5138   91.5996    1.9084 O.2     1  UNL1       -0.2701
     51 H          58.6626   93.5179    2.4919 H       1  UNL1        0.1497
     52 C          60.6124   93.5981    0.5143 C.ar    1  UNL1        0.0534
     53 C          59.6175   93.5288   -0.6061 C.ar    1  UNL1        0.0058
     54 C          59.7425   94.4561   -1.7785 C.ar    1  UNL1        0.0147
     55 C          60.8623   95.4527   -1.8306 C.ar    1  UNL1        0.0479
     56 C          61.8573   95.5220   -0.7101 C.ar    1  UNL1        0.0147
     57 C          61.7323   94.5947    0.4623 C.ar    1  UNL1        0.0058
     58 N          60.9872   96.3800   -3.0030 N.pl3   1  UNL1       -0.3041
     59 C          62.3403   96.8560   -3.4419 C.3     1  UNL1        0.1122
     60 C          59.7590   96.8312   -3.7365 C.3     1  UNL1        0.1122
     61 C          63.4515   90.5457   14.8490 C.3     1  UNL1        0.1177
     62 C          64.6613   91.1611   14.2105 C.ar    1  UNL1       -0.0025
     63 C          66.0061   91.0188   14.8595 C.ar    1  UNL1       -0.0026
     64 C          67.2159   91.6342   14.2210 C.ar    1  UNL1       -0.0003
     65 C          67.0809   92.3918   12.9335 C.ar    1  UNL1       -0.0000
     66 C          65.7361   92.5340   12.2844 C.ar    1  UNL1       -0.0003
     67 C          64.5263   91.9187   12.9229 C.ar    1  UNL1       -0.0026
@<TRIPOS>BOND
     1    18    19    2
     2    19    17    1
     3    17     1    1
     4     1     2    1
     5     2     3    1
     6     3     4    2
     7     3     5   am
     8     5     6    1
     9     6    20    1
    10    20    21    1
    11    21    22   ar
    12    22    23   ar
    13    23    24   ar
    14    24    25    1
    15    24    26   ar
    16    26    27   ar
    17     6     7    1
    18     7     8    2
    19     7     9   am
    20     9    29    1
    21    29    30    1
    22    30    31   ar
    23    31    32   ar
    24    32    33   ar
    25    33    34   ar
    26    34    35   ar
    27    35    40    1
    28    40    41    2
    29    40    42   am
    30    42    43    1
    31    43    44    1
    32    44    45    1
    33    45    48    1
    34    48    49   am
    35    49    50    2
    36    49    52    1
    37    52    53   ar
    38    53    54   ar
    39    54    55   ar
    40    55    58    1
    41    58    59    1
    42    58    60    1
    43    55    56   ar
    44    56    57   ar
    45    45    46    1
    46    46    47    1
    47    35    36   ar
    48    36    37   ar
    49    37    38    1
    50    37    39   ar
    51     9    10    1
    52    11    10    1
    53    11    12    1
    54    12    13   am
    55    13    14    2
    56    13    15   am
    57    15    61    1
    58    61    62    1
    59    62    63   ar
    60    63    64   ar
    61    64    65   ar
    62    65    66   ar
    63    66    67   ar
    64    12     1    1
    65    67    62   ar
    66    11     5    1
    67    27    21   ar
    68    39    30   ar
    69    39    34   ar
    70    47    42    1
    71    57    52   ar
    72    25    28    1
    73    48    51    1
    74    15    16    1
