@<TRIPOS>MOLECULE
*****
 29 32 0 0 0
SMALL
GASTEIGER

@<TRIPOS>ATOM
      1 C          63.8398   89.6273   13.1471 C.ar    1  UNL1        0.0957
      2 C          63.8999   89.5585   14.6443 C.ar    1  UNL1        0.1191
      3 N          64.5992   90.6371   15.4172 N.ar    1  UNL1       -0.2223
      4 C          65.2385   91.7846   14.6930 C.ar    1  UNL1        0.1784
      5 N          65.9920   92.9857   15.1823 N.ar    1  UNL1       -0.2236
      6 C          66.3977   93.7969   13.9876 C.ar    1  UNL1        0.1066
      7 C          65.8949   93.0971   12.7598 C.ar    1  UNL1        0.0910
      8 C          65.1784   91.8535   13.1958 C.ar    1  UNL1        0.0988
      9 N          64.4791   90.7748   12.4228 N.ar    1  UNL1       -0.3481
     10 H          64.4397   90.8200   11.4401 H       1  UNL1        0.1661
     11 C          62.2128   84.8843   11.4926 C.3     1  UNL1        0.1537
     12 N          62.3927   86.3685   11.6137 N.ar    1  UNL1       -0.2488
     13 N          63.2607   87.0728   12.6140 N.ar    1  UNL1       -0.1677
     14 C          63.1405   88.5486   12.3742 C.ar    1  UNL1        0.1193
     15 C          62.1982   88.7564   11.2257 C.ar    1  UNL1        0.0381
     16 C          61.7014   89.9985   10.5472 C.ar    1  UNL1        0.0040
     17 C          60.7424   89.8932    9.3987 C.ar    1  UNL1        0.0115
     18 C          60.2802   88.5458    8.9287 C.ar    1  UNL1        0.0592
     19 CL         59.3211   88.4405    7.7801 Cl      1  UNL1       -0.0822
     20 C          60.7770   87.3037    9.6072 C.ar    1  UNL1        0.0302
     21 C          61.7360   87.4091   10.7557 C.ar    1  UNL1        0.0803
     22 C          66.0766   93.5598   11.3445 C.2     1  UNL1        0.2488
     23 O          65.2994   92.9110   10.2378 O.2     1  UNL1       -0.2700
     24 N          67.0355   94.6712   11.0361 N.am    1  UNL1       -0.3039
     25 H          67.5456   95.0971   11.7625 H       1  UNL1        0.1496
     26 C          67.2171   95.1339    9.6209 C.3     1  UNL1        0.0572
     27 C          66.2672   96.2678    9.8696 C.3     1  UNL1        0.0196
     28 C          68.1671   93.9999    9.3721 C.3     1  UNL1        0.0196
     29 C          67.3988   95.5966    8.2056 C.3     1  UNL1        0.0196
@<TRIPOS>BOND
     1    11    12    1
     2    12    13   ar
     3    13    14   ar
     4    14     1    1
     5     1     2   ar
     6     2     3   ar
     7     3     4   ar
     8     4     5   ar
     9     5     6   ar
    10     6     7   ar
    11     7    22    1
    12    22    23    2
    13    22    24   am
    14    24    26    1
    15    26    27    1
    16    26    28    1
    17    26    29    1
    18     7     8   ar
    19     8     9   ar
    20    14    15   ar
    21    15    16   ar
    22    16    17   ar
    23    17    18   ar
    24    18    19    1
    25    18    20   ar
    26    20    21   ar
    27    21    12   ar
    28     9     1   ar
    29    21    15   ar
    30     8     4    1
    31    24    25    1
    32     9    10    1
@<TRIPOS>MOLECULE
*****
 29 32 0 0 0
SMALL
GASTEIGER

@<TRIPOS>ATOM
      1 C          63.6983   89.7964   12.8867 C.ar    1  UNL1        0.0957
      2 C          63.8026   89.6150   14.3720 C.ar    1  UNL1        0.1191
      3 N          64.5703   90.6054   15.1965 N.ar    1  UNL1       -0.2223
      4 C          65.2337   91.7772   14.5356 C.ar    1  UNL1        0.1784
      5 N          66.0518   92.9084   15.0843 N.ar    1  UNL1       -0.2236
      6 C          66.4531   93.7889   13.9382 C.ar    1  UNL1        0.1066
      7 C          65.8830   93.2019   12.6811 C.ar    1  UNL1        0.0910
      8 C          65.1294   91.9586   13.0503 C.ar    1  UNL1        0.0988
      9 N          64.3617   90.9682   12.2258 N.ar    1  UNL1       -0.3481
     10 H          64.2932   91.0873   11.2509 H       1  UNL1        0.1661
     11 C          60.4803   87.7029    9.2614 C.3     1  UNL1        0.1537
     12 N          61.4514   87.8437   10.3959 N.ar    1  UNL1       -0.2488
     13 N          61.9975   89.1329   10.9342 N.ar    1  UNL1       -0.1677
     14 C          62.9305   88.8060   12.0623 C.ar    1  UNL1        0.1193
     15 C          62.9611   87.3147   12.2212 C.ar    1  UNL1        0.0381
     16 C          63.7032   86.4215   13.1706 C.ar    1  UNL1        0.0040
     17 C          63.5312   84.9336   13.0901 C.ar    1  UNL1        0.0115
     18 C          62.6170   84.3389   12.0603 C.ar    1  UNL1        0.0592
     19 CL         62.4450   82.8509   11.9798 Cl      1  UNL1       -0.0822
     20 C          61.8749   85.2321   11.1109 C.ar    1  UNL1        0.0302
     21 C          62.0470   86.7200   11.1913 C.ar    1  UNL1        0.0803
     22 C          66.0391   93.7602   11.2976 C.2     1  UNL1        0.2488
     23 O          65.2164   93.2110   10.1699 O.2     1  UNL1       -0.2700
     24 N          67.0179   94.8677   11.0418 N.am    1  UNL1       -0.3039
     25 H          67.5578   95.2282   11.7819 H       1  UNL1        0.1496
     26 C          67.1740   95.4259    9.6583 C.3     1  UNL1        0.0572
     27 C          68.0524   94.2673    9.2899 C.3     1  UNL1        0.0196
     28 C          66.2955   96.5847   10.0268 C.3     1  UNL1        0.0196
     29 C          67.3301   95.9842    8.2748 C.3     1  UNL1        0.0196
@<TRIPOS>BOND
     1    11    12    1
     2    12    13   ar
     3    13    14   ar
     4    14     1    1
     5     1     2   ar
     6     2     3   ar
     7     3     4   ar
     8     4     5   ar
     9     5     6   ar
    10     6     7   ar
    11     7    22    1
    12    22    23    2
    13    22    24   am
    14    24    26    1
    15    26    27    1
    16    26    28    1
    17    26    29    1
    18     7     8   ar
    19     8     9   ar
    20    14    15   ar
    21    15    16   ar
    22    16    17   ar
    23    17    18   ar
    24    18    19    1
    25    18    20   ar
    26    20    21   ar
    27    21    12   ar
    28     9     1   ar
    29    21    15   ar
    30     8     4    1
    31    24    25    1
    32     9    10    1
@<TRIPOS>MOLECULE
*****
 29 32 0 0 0
SMALL
GASTEIGER

@<TRIPOS>ATOM
      1 C          63.2582   90.5787   10.8904 C.ar    1  UNL1        0.0957
      2 C          62.2777   90.8680    9.7928 C.ar    1  UNL1        0.1191
      3 N          61.3139   89.8076    9.3493 N.ar    1  UNL1       -0.2223
      4 C          61.3305   88.4579   10.0034 C.ar    1  UNL1        0.1784
      5 N          60.5075   87.2240    9.7799 N.ar    1  UNL1       -0.2236
      6 C          60.9793   86.1720   10.7394 C.ar    1  UNL1        0.1066
      7 C          62.0940   86.7557   11.5559 C.ar    1  UNL1        0.0910
      8 C          62.3110   88.1685   11.1011 C.ar    1  UNL1        0.0988
      9 N          63.2749   89.2288   11.5446 N.ar    1  UNL1       -0.3481
     10 H          63.9184   89.0389   12.2650 H       1  UNL1        0.1661
     11 C          66.4203   94.8073   10.8930 C.3     1  UNL1        0.1537
     12 N          65.6755   93.5827   11.3351 N.ar    1  UNL1       -0.2488
     13 N          64.7404   92.7671   10.4922 N.ar    1  UNL1       -0.1677
     14 C          64.2220   91.6390   11.3339 C.ar    1  UNL1        0.1193
     15 C          64.8366   91.7573   12.6971 C.ar    1  UNL1        0.0381
     16 C          64.6944   90.9264   13.9378 C.ar    1  UNL1        0.0040
     17 C          65.4504   91.2968   15.1792 C.ar    1  UNL1        0.0115
     18 C          66.3487   92.4981   15.1799 C.ar    1  UNL1        0.0592
     19 CL         67.1048   92.8685   16.4215 Cl      1  UNL1       -0.0822
     20 C          66.4910   93.3290   13.9393 C.ar    1  UNL1        0.0302
     21 C          65.7349   92.9586   12.6978 C.ar    1  UNL1        0.0803
     22 C          62.8575   86.0505   12.6375 C.2     1  UNL1        0.2488
     23 O          63.8087   86.8183   13.5068 O.2     1  UNL1       -0.2700
     24 N          62.6698   84.5775   12.8497 N.am    1  UNL1       -0.3039
     25 H          62.0455   84.0736   12.2791 H       1  UNL1        0.1496
     26 C          63.4334   83.8723   13.9312 C.3     1  UNL1        0.0572
     27 C          62.3262   84.1610   14.9011 C.3     1  UNL1        0.0196
     28 C          64.5407   83.5836   12.9613 C.3     1  UNL1        0.0196
     29 C          64.1969   83.1671   15.0128 C.3     1  UNL1        0.0196
@<TRIPOS>BOND
     1    11    12    1
     2    12    13   ar
     3    13    14   ar
     4    14     1    1
     5     1     2   ar
     6     2     3   ar
     7     3     4   ar
     8     4     5   ar
     9     5     6   ar
    10     6     7   ar
    11     7    22    1
    12    22    23    2
    13    22    24   am
    14    24    26    1
    15    26    27    1
    16    26    28    1
    17    26    29    1
    18     7     8   ar
    19     8     9   ar
    20    14    15   ar
    21    15    16   ar
    22    16    17   ar
    23    17    18   ar
    24    18    19    1
    25    18    20   ar
    26    20    21   ar
    27    21    12   ar
    28     9     1   ar
    29    21    15   ar
    30     8     4    1
    31    24    25    1
    32     9    10    1
@<TRIPOS>MOLECULE
*****
 29 32 0 0 0
SMALL
GASTEIGER

@<TRIPOS>ATOM
      1 C          62.3419   87.2358   11.4080 C.ar    1  UNL1        0.0957
      2 C          62.8239   88.5730   11.8870 C.ar    1  UNL1        0.1191
      3 N          63.6270   88.6725   13.1500 N.ar    1  UNL1       -0.2223
      4 C          63.9481   87.4348   13.9341 C.ar    1  UNL1        0.1784
      5 N          64.7143   87.2230   15.2061 N.ar    1  UNL1       -0.2236
      6 C          64.7059   85.7549   15.5134 C.ar    1  UNL1        0.1066
      7 C          63.9344   85.0592   14.4312 C.ar    1  UNL1        0.0910
      8 C          63.4661   86.0975   13.4552 C.ar    1  UNL1        0.0988
      9 N          62.6630   85.9980   12.1922 N.ar    1  UNL1       -0.3481
     10 H          62.3467   85.1203   11.8778 H       1  UNL1        0.1661
     11 C          58.6250   88.0367    7.7441 C.3     1  UNL1        0.1537
     12 N          59.8304   87.5044    8.4610 N.ar    1  UNL1       -0.2488
     13 N          60.3020   87.9213    9.8225 N.ar    1  UNL1       -0.1677
     14 C          61.5388   87.1363   10.1450 C.ar    1  UNL1        0.1193
     15 C          61.8316   86.2343    8.9828 C.ar    1  UNL1        0.0381
     16 C          62.9233   85.2352    8.7379 C.ar    1  UNL1        0.0040
     17 C          62.9591   84.4637    7.4521 C.ar    1  UNL1        0.0115
     18 C          61.9032   84.6912    6.4112 C.ar    1  UNL1        0.0592
     19 CL         61.9390   83.9195    5.1254 Cl      1  UNL1       -0.0822
     20 C          60.8115   85.6902    6.6562 C.ar    1  UNL1        0.0302
     21 C          60.7758   86.4618    7.9420 C.ar    1  UNL1        0.0803
     22 C          63.6766   83.5843   14.3410 C.2     1  UNL1        0.2488
     23 O          64.3272   82.6482   15.3159 O.2     1  UNL1       -0.2700
     24 N          62.7682   83.0455   13.2759 N.am    1  UNL1       -0.3039
     25 H          62.3412   83.6599   12.6360 H       1  UNL1        0.1496
     26 C          62.5104   81.5706   13.1857 C.3     1  UNL1        0.0572
     27 C          63.5252   81.4604   12.0866 C.3     1  UNL1        0.0196
     28 C          61.4956   81.6807   14.2848 C.3     1  UNL1        0.0196
     29 C          62.2526   80.0956   13.0954 C.3     1  UNL1        0.0196
@<TRIPOS>BOND
     1    11    12    1
     2    12    13   ar
     3    13    14   ar
     4    14     1    1
     5     1     2   ar
     6     2     3   ar
     7     3     4   ar
     8     4     5   ar
     9     5     6   ar
    10     6     7   ar
    11     7    22    1
    12    22    23    2
    13    22    24   am
    14    24    26    1
    15    26    27    1
    16    26    28    1
    17    26    29    1
    18     7     8   ar
    19     8     9   ar
    20    14    15   ar
    21    15    16   ar
    22    16    17   ar
    23    17    18   ar
    24    18    19    1
    25    18    20   ar
    26    20    21   ar
    27    21    12   ar
    28     9     1   ar
    29    21    15   ar
    30     8     4    1
    31    24    25    1
    32     9    10    1
@<TRIPOS>MOLECULE
*****
 29 32 0 0 0
SMALL
GASTEIGER

@<TRIPOS>ATOM
      1 C          62.4509   89.3711   12.0144 C.ar    1  UNL1        0.0957
      2 C          61.6219   90.2272   11.1036 C.ar    1  UNL1        0.1191
      3 N          61.0075   89.6343    9.8703 N.ar    1  UNL1       -0.2223
      4 C          61.2222   88.1852    9.5478 C.ar    1  UNL1        0.1784
      5 N          60.7465   87.3285    8.4121 N.ar    1  UNL1       -0.2236
      6 C          61.2817   85.9429    8.6208 C.ar    1  UNL1        0.1066
      7 C          62.0881   85.9432    9.8857 C.ar    1  UNL1        0.0910
      8 C          62.0513   87.3290   10.4585 C.ar    1  UNL1        0.0988
      9 N          62.6657   87.9219   11.6918 N.ar    1  UNL1       -0.3481
     10 H          63.2099   87.3599   12.2896 H       1  UNL1        0.1661
     11 C          63.5395   90.4276   17.0720 C.3     1  UNL1        0.1537
     12 N          63.5657   90.4496   15.5724 N.ar    1  UNL1       -0.2488
     13 N          62.7062   89.6219   14.6633 N.ar    1  UNL1       -0.1677
     14 C          63.0653   89.9639   13.2477 C.ar    1  UNL1        0.1193
     15 C          64.1467   91.0029   13.2818 C.ar    1  UNL1        0.0381
     16 C          64.8898   91.7144   12.1902 C.ar    1  UNL1        0.0040
     17 C          65.9421   92.7261   12.5354 C.ar    1  UNL1        0.0115
     18 C          66.2513   93.0262   13.9722 C.ar    1  UNL1        0.0592
     19 CL         67.3037   94.0379   14.3173 Cl      1  UNL1       -0.0822
     20 C          65.5083   92.3147   15.0637 C.ar    1  UNL1        0.0302
     21 C          64.4560   91.3030   14.7185 C.ar    1  UNL1        0.0803
     22 C          62.8053   84.7646   10.4743 C.2     1  UNL1        0.2488
     23 O          63.7276   83.9452    9.6210 O.2     1  UNL1       -0.2700
     24 N          62.6003   84.4053   11.9161 N.am    1  UNL1       -0.3039
     25 H          61.9950   84.9431   12.4761 H       1  UNL1        0.1496
     26 C          63.3176   83.2267   12.5046 C.3     1  UNL1        0.0572
     27 C          62.2768   82.3089   11.9351 C.3     1  UNL1        0.0196
     28 C          64.3584   84.1445   13.0742 C.3     1  UNL1        0.0196
     29 C          64.0348   82.0480   13.0931 C.3     1  UNL1        0.0196
@<TRIPOS>BOND
     1    11    12    1
     2    12    13   ar
     3    13    14   ar
     4    14     1    1
     5     1     2   ar
     6     2     3   ar
     7     3     4   ar
     8     4     5   ar
     9     5     6   ar
    10     6     7   ar
    11     7    22    1
    12    22    23    2
    13    22    24   am
    14    24    26    1
    15    26    27    1
    16    26    28    1
    17    26    29    1
    18     7     8   ar
    19     8     9   ar
    20    14    15   ar
    21    15    16   ar
    22    16    17   ar
    23    17    18   ar
    24    18    19    1
    25    18    20   ar
    26    20    21   ar
    27    21    12   ar
    28     9     1   ar
    29    21    15   ar
    30     8     4    1
    31    24    25    1
    32     9    10    1
@<TRIPOS>MOLECULE
*****
 29 32 0 0 0
SMALL
GASTEIGER

@<TRIPOS>ATOM
      1 C          63.0824   89.9356   11.6554 C.ar    1  UNL1        0.0957
      2 C          62.1374   90.4836   10.6275 C.ar    1  UNL1        0.1191
      3 N          61.2375   89.5562    9.8658 N.ar    1  UNL1       -0.2223
      4 C          61.2826   88.0807   10.1321 C.ar    1  UNL1        0.1784
      5 N          60.5212   86.9307    9.5424 N.ar    1  UNL1       -0.2236
      6 C          60.9956   85.6719   10.2059 C.ar    1  UNL1        0.1066
      7 C          62.0502   86.0439   11.2056 C.ar    1  UNL1        0.0910
      8 C          62.2276   87.5327   11.1600 C.ar    1  UNL1        0.0988
      9 N          63.1275   88.4600   11.9216 N.ar    1  UNL1       -0.3481
     10 H          63.7477   88.1003   12.5963 H       1  UNL1        0.1661
     11 C          65.8913   92.1357   15.5477 C.3     1  UNL1        0.1537
     12 N          65.2734   91.8743   14.2061 N.ar    1  UNL1       -0.2488
     13 N          64.3596   90.7352   13.8632 N.ar    1  UNL1       -0.1677
     14 C          63.9823   90.8630   12.4170 C.ar    1  UNL1        0.1193
     15 C          64.6628   92.0810   11.8663 C.ar    1  UNL1        0.0381
     16 C          64.6590   92.7017   10.5007 C.ar    1  UNL1        0.0040
     17 C          65.4531   93.9474   10.2410 C.ar    1  UNL1        0.0115
     18 C          66.2511   94.5724   11.3467 C.ar    1  UNL1        0.0592
     19 CL         67.0453   95.8182   11.0869 Cl      1  UNL1       -0.0822
     20 C          66.2549   93.9517   12.7122 C.ar    1  UNL1        0.0302
     21 C          65.4608   92.7060   12.9720 C.ar    1  UNL1        0.0803
     22 C          62.7964   85.0939   12.0949 C.2     1  UNL1        0.2488
     23 O          63.5974   83.9768   11.4944 O.2     1  UNL1       -0.2700
     24 N          62.7417   85.2610   13.5845 N.am    1  UNL1       -0.3039
     25 H          62.2160   85.9942   13.9786 H       1  UNL1        0.1496
     26 C          63.4879   84.3110   14.4736 C.3     1  UNL1        0.0572
     27 C          64.6496   85.2591   14.5117 C.3     1  UNL1        0.0196
     28 C          62.3262   83.3628   14.4356 C.3     1  UNL1        0.0196
     29 C          64.2342   83.3610   15.3628 C.3     1  UNL1        0.0196
@<TRIPOS>BOND
     1    11    12    1
     2    12    13   ar
     3    13    14   ar
     4    14     1    1
     5     1     2   ar
     6     2     3   ar
     7     3     4   ar
     8     4     5   ar
     9     5     6   ar
    10     6     7   ar
    11     7    22    1
    12    22    23    2
    13    22    24   am
    14    24    26    1
    15    26    27    1
    16    26    28    1
    17    26    29    1
    18     7     8   ar
    19     8     9   ar
    20    14    15   ar
    21    15    16   ar
    22    16    17   ar
    23    17    18   ar
    24    18    19    1
    25    18    20   ar
    26    20    21   ar
    27    21    12   ar
    28     9     1   ar
    29    21    15   ar
    30     8     4    1
    31    24    25    1
    32     9    10    1
@<TRIPOS>MOLECULE
*****
 29 32 0 0 0
SMALL
GASTEIGER

@<TRIPOS>ATOM
      1 C          62.1499   88.9837   10.9403 C.ar    1  UNL1        0.0957
      2 C          62.3865   90.4498   11.1511 C.ar    1  UNL1        0.1191
      3 N          63.1807   90.9189   12.3340 N.ar    1  UNL1       -0.2223
      4 C          63.7384   89.9219   13.3061 C.ar    1  UNL1        0.1784
      5 N          64.5538   90.0850   14.5544 N.ar    1  UNL1       -0.2236
      6 C          64.8212   88.7198   15.1152 C.ar    1  UNL1        0.1066
      7 C          64.1710   87.7128   14.2134 C.ar    1  UNL1        0.0910
      8 C          63.5018   88.4558   13.0953 C.ar    1  UNL1        0.0988
      9 N          62.7076   87.9866   11.9124 N.ar    1  UNL1       -0.3481
     10 H          62.5523   87.0243   11.7741 H       1  UNL1        0.1661
     11 C          58.4944   88.6950    7.1410 C.3     1  UNL1        0.1537
     12 N          59.6755   88.3819    8.0111 N.ar    1  UNL1       -0.2488
     13 N          60.1477   89.1922    9.1817 N.ar    1  UNL1       -0.1677
     14 C          61.3557   88.5146    9.7574 C.ar    1  UNL1        0.1193
     15 C          61.6301   87.2854    8.9427 C.ar    1  UNL1        0.0381
     16 C          62.6913   86.2303    9.0441 C.ar    1  UNL1        0.0040
     17 C          62.7142   85.0931    8.0663 C.ar    1  UNL1        0.0115
     18 C          61.6757   85.0111    6.9869 C.ar    1  UNL1        0.0592
     19 CL         61.6986   83.8738    6.0090 Cl      1  UNL1       -0.0822
     20 C          60.6144   86.0662    6.8855 C.ar    1  UNL1        0.0302
     21 C          60.5916   87.2034    7.8634 C.ar    1  UNL1        0.0803
     22 C          64.1872   86.2242   14.3974 C.2     1  UNL1        0.2488
     23 O          65.4018   85.5519   14.9657 O.2     1  UNL1       -0.2700
     24 N          62.9889   85.4079   14.0132 N.am    1  UNL1       -0.3039
     25 H          62.1918   85.8491   13.6402 H       1  UNL1        0.1496
     26 C          63.0052   83.9193   14.1972 C.3     1  UNL1        0.0572
     27 C          62.4831   84.0862   15.5934 C.3     1  UNL1        0.0196
     28 C          63.5273   83.7524   12.8009 C.3     1  UNL1        0.0196
     29 C          63.0214   82.4307   14.3813 C.3     1  UNL1        0.0196
@<TRIPOS>BOND
     1    11    12    1
     2    12    13   ar
     3    13    14   ar
     4    14     1    1
     5     1     2   ar
     6     2     3   ar
     7     3     4   ar
     8     4     5   ar
     9     5     6   ar
    10     6     7   ar
    11     7    22    1
    12    22    23    2
    13    22    24   am
    14    24    26    1
    15    26    27    1
    16    26    28    1
    17    26    29    1
    18     7     8   ar
    19     8     9   ar
    20    14    15   ar
    21    15    16   ar
    22    16    17   ar
    23    17    18   ar
    24    18    19    1
    25    18    20   ar
    26    20    21   ar
    27    21    12   ar
    28     9     1   ar
    29    21    15   ar
    30     8     4    1
    31    24    25    1
    32     9    10    1
@<TRIPOS>MOLECULE
*****
 29 32 0 0 0
SMALL
GASTEIGER

@<TRIPOS>ATOM
      1 C          62.6818   87.0215   11.9680 C.ar    1  UNL1        0.0957
      2 C          61.8707   87.3357   10.7460 C.ar    1  UNL1        0.1191
      3 N          61.8500   88.7319   10.1981 N.ar    1  UNL1       -0.2223
      4 C          62.6404   89.8140   10.8722 C.ar    1  UNL1        0.1784
      5 N          62.8123   91.2718   10.5639 N.ar    1  UNL1       -0.2236
      6 C          63.7297   91.8587   11.5954 C.ar    1  UNL1        0.1066
      7 C          64.1247   90.7635   12.5412 C.ar    1  UNL1        0.0910
      8 C          63.4514   89.4998   12.0943 C.ar    1  UNL1        0.0988
      9 N          63.4722   88.1036   12.6422 N.ar    1  UNL1       -0.3481
     10 H          64.0045   87.8975   13.4443 H       1  UNL1        0.1661
     11 C          62.5130   82.9339   15.3062 C.3     1  UNL1        0.1537
     12 N          62.6249   83.7465   14.0503 N.ar    1  UNL1       -0.2488
     13 N          62.5375   85.2410   13.9565 N.ar    1  UNL1       -0.1677
     14 C          62.7025   85.6253   12.5160 C.ar    1  UNL1        0.1193
     15 C          62.8918   84.3684   11.7195 C.ar    1  UNL1        0.0381
     16 C          63.1016   84.1312   10.2534 C.ar    1  UNL1        0.0040
     17 C          63.2636   82.7328    9.7355 C.ar    1  UNL1        0.0115
     18 C          63.2156   81.5716   10.6838 C.ar    1  UNL1        0.0592
     19 CL         63.3775   80.1731   10.1659 Cl      1  UNL1       -0.0822
     20 C          63.0058   81.8088   12.1500 C.ar    1  UNL1        0.0302
     21 C          62.8439   83.2072   12.6679 C.ar    1  UNL1        0.0803
     22 C          65.0334   90.9069   13.7261 C.2     1  UNL1        0.2488
     23 O          65.0918   89.8236   14.7619 O.2     1  UNL1       -0.2700
     24 N          65.8836   92.1336   13.8750 N.am    1  UNL1       -0.3039
     25 H          65.8453   92.8447   13.1951 H       1  UNL1        0.1496
     26 C          66.7923   92.2770   15.0598 C.3     1  UNL1        0.0572
     27 C          67.9760   91.9791   14.1880 C.3     1  UNL1        0.0196
     28 C          65.6086   92.5749   15.9316 C.3     1  UNL1        0.0196
     29 C          67.7011   92.4204   16.2446 C.3     1  UNL1        0.0196
@<TRIPOS>BOND
     1    11    12    1
     2    12    13   ar
     3    13    14   ar
     4    14     1    1
     5     1     2   ar
     6     2     3   ar
     7     3     4   ar
     8     4     5   ar
     9     5     6   ar
    10     6     7   ar
    11     7    22    1
    12    22    23    2
    13    22    24   am
    14    24    26    1
    15    26    27    1
    16    26    28    1
    17    26    29    1
    18     7     8   ar
    19     8     9   ar
    20    14    15   ar
    21    15    16   ar
    22    16    17   ar
    23    17    18   ar
    24    18    19    1
    25    18    20   ar
    26    20    21   ar
    27    21    12   ar
    28     9     1   ar
    29    21    15   ar
    30     8     4    1
    31    24    25    1
    32     9    10    1
@<TRIPOS>MOLECULE
*****
 29 32 0 0 0
SMALL
GASTEIGER

@<TRIPOS>ATOM
      1 C          63.2882   84.9844   13.9992 C.ar    1  UNL1        0.0957
      2 C          64.1293   85.2339   15.2158 C.ar    1  UNL1        0.1191
      3 N          64.6649   86.6082   15.4884 N.ar    1  UNL1       -0.2223
      4 C          64.3595   87.7331   14.5443 C.ar    1  UNL1        0.1784
      5 N          64.7457   89.1824   14.5515 N.ar    1  UNL1       -0.2236
      6 C          64.1434   89.8288   13.3393 C.ar    1  UNL1        0.1066
      7 C          63.3848   88.7788   12.5829 C.ar    1  UNL1        0.0910
      8 C          63.5183   87.4836   13.3276 C.ar    1  UNL1        0.0988
      9 N          62.9827   86.1093   13.0551 N.ar    1  UNL1       -0.3481
     10 H          62.4306   85.9456   12.2565 H       1  UNL1        0.1661
     11 C          60.6598   80.4309   14.4876 C.3     1  UNL1        0.1537
     12 N          61.5444   81.5171   13.9511 N.ar    1  UNL1       -0.2488
     13 N          61.8166   82.8376   14.6084 N.ar    1  UNL1       -0.1677
     14 C          62.7525   83.6100   13.7267 C.ar    1  UNL1        0.1193
     15 C          63.0588   82.7668   12.5245 C.ar    1  UNL1        0.0381
     16 C          63.9211   83.0097   11.3214 C.ar    1  UNL1        0.0040
     17 C          64.0367   81.9591   10.2571 C.ar    1  UNL1        0.0115
     18 C          63.2901   80.6656   10.3959 C.ar    1  UNL1        0.0592
     19 CL         63.4057   79.6150    9.3315 Cl      1  UNL1       -0.0822
     20 C          62.4278   80.4227   11.5989 C.ar    1  UNL1        0.0302
     21 C          62.3121   81.4733   12.6632 C.ar    1  UNL1        0.0803
     22 C          62.6259   88.9875   11.3060 C.2     1  UNL1        0.2488
     23 O          63.1444   89.9437   10.2731 O.2     1  UNL1       -0.2700
     24 N          61.3485   88.2400   11.0619 N.am    1  UNL1       -0.3039
     25 H          61.0082   87.6124   11.7399 H       1  UNL1        0.1496
     26 C          60.5897   88.4487    9.7850 C.3     1  UNL1        0.0572
     27 C          59.9972   89.7086   10.3430 C.3     1  UNL1        0.0196
     28 C          61.1822   87.1886    9.2269 C.3     1  UNL1        0.0196
     29 C          59.8308   88.6574    8.5081 C.3     1  UNL1        0.0196
@<TRIPOS>BOND
     1    11    12    1
     2    12    13   ar
     3    13    14   ar
     4    14     1    1
     5     1     2   ar
     6     2     3   ar
     7     3     4   ar
     8     4     5   ar
     9     5     6   ar
    10     6     7   ar
    11     7    22    1
    12    22    23    2
    13    22    24   am
    14    24    26    1
    15    26    27    1
    16    26    28    1
    17    26    29    1
    18     7     8   ar
    19     8     9   ar
    20    14    15   ar
    21    15    16   ar
    22    16    17   ar
    23    17    18   ar
    24    18    19    1
    25    18    20   ar
    26    20    21   ar
    27    21    12   ar
    28     9     1   ar
    29    21    15   ar
    30     8     4    1
    31    24    25    1
    32     9    10    1
