@<TRIPOS>MOLECULE
*****
 27 30 0 0 0
SMALL
GASTEIGER

@<TRIPOS>ATOM
      1 C          61.5621   90.1752    9.5571 C.3     1  UNL1        0.0326
      2 C          61.6897   88.7075    9.8394 C.ar    1  UNL1       -0.0033
      3 C          61.1730   87.7058    8.8498 C.ar    1  UNL1        0.0086
      4 C          61.3007   86.2381    9.1320 C.ar    1  UNL1        0.0575
      5 CL         60.7839   85.2363    8.1423 Cl      1  UNL1       -0.0823
      6 C          61.9450   85.7722   10.4040 C.ar    1  UNL1        0.0129
      7 C          62.4616   86.7740   11.3936 C.ar    1  UNL1        0.0184
      8 C          63.1060   86.3081   12.6656 C.ar    1  UNL1        0.0053
      9 C          63.6227   87.3099   13.6552 C.ar    1  UNL1        0.0456
     10 C          63.4951   88.7776   13.3729 C.ar    1  UNL1        0.1326
     11 N          62.8508   89.2435   12.1010 N.ar    1  UNL1       -0.2310
     12 C          62.3340   88.2417   11.1113 C.ar    1  UNL1        0.0787
     13 C          63.2336   84.8405   12.9478 C.ar    1  UNL1        0.0002
     14 C          64.2273   84.0140   12.1867 C.ar    1  UNL1        0.0000
     15 C          64.3549   82.5463   12.4690 C.ar    1  UNL1        0.0000
     16 C          63.4888   81.9051   13.5124 C.ar    1  UNL1        0.0000
     17 C          62.4950   82.7317   14.2736 C.ar    1  UNL1        0.0000
     18 C          62.3674   84.1993   13.9913 C.ar    1  UNL1        0.0000
     19 N          64.0118   89.7794   14.3626 N.pl3   1  UNL1       -0.2932
     20 C          65.2843   90.5226   14.0827 C.3     1  UNL1        0.0922
     21 C          65.8010   91.5243   15.0723 C.3     1  UNL1        0.0215
     22 C          65.0453   91.7829   16.3419 C.3     1  UNL1        0.0035
     23 C          63.7728   91.0397   16.6219 C.3     1  UNL1        0.0215
     24 C          63.2560   90.0380   15.6322 C.3     1  UNL1        0.0922
     25 C          64.2670   86.8441   14.9272 C.2     1  UNL1        0.0756
     26 O          63.5006   86.8876   16.2159 O.co2   1  UNL1       -0.5445
     27 O          65.6777   86.3347   14.9105 O.co2   1  UNL1       -0.5445
@<TRIPOS>UNITY_ATOM_ATTR
26 1
charge -1
@<TRIPOS>BOND
     1     1     2    1
     2     2     3   ar
     3     3     4   ar
     4     4     5    1
     5     4     6   ar
     6     6     7   ar
     7     7     8   ar
     8     8    13    1
     9    13    14   ar
    10    14    15   ar
    11    15    16   ar
    12    16    17   ar
    13    17    18   ar
    14     8     9   ar
    15     9    25    1
    16    25    26   ar
    17    25    27   ar
    18     9    10   ar
    19    10    19    1
    20    19    20    1
    21    20    21    1
    22    21    22    1
    23    22    23    1
    24    23    24    1
    25    10    11   ar
    26    11    12   ar
    27    12     2   ar
    28    12     7   ar
    29    18    13   ar
    30    24    19    1
@<TRIPOS>MOLECULE
*****
 27 30 0 0 0
SMALL
GASTEIGER

@<TRIPOS>ATOM
      1 C          61.3990   86.5572    8.7751 C.3     1  UNL1        0.0326
      2 C          61.8667   87.6542    9.6850 C.ar    1  UNL1       -0.0033
      3 C          61.7542   89.0861    9.2529 C.ar    1  UNL1        0.0086
      4 C          62.2220   90.1831   10.1628 C.ar    1  UNL1        0.0575
      5 CL         62.1095   91.6151    9.7306 Cl      1  UNL1       -0.0823
      6 C          62.8022   89.8481   11.5048 C.ar    1  UNL1        0.0129
      7 C          62.9147   88.4161   11.9369 C.ar    1  UNL1        0.0184
      8 C          63.4949   88.0810   13.2790 C.ar    1  UNL1        0.0053
      9 C          63.6074   86.6490   13.7111 C.ar    1  UNL1        0.0456
     10 C          63.1397   85.5521   12.8012 C.ar    1  UNL1        0.1326
     11 N          62.5594   85.8871   11.4592 N.ar    1  UNL1       -0.2310
     12 C          62.4469   87.3191   11.0270 C.ar    1  UNL1        0.0787
     13 C          63.9627   89.1779   14.1889 C.ar    1  UNL1        0.0002
     14 C          63.2064   89.4813   15.4483 C.ar    1  UNL1        0.0000
     15 C          63.6742   90.5783   16.3582 C.ar    1  UNL1        0.0000
     16 C          64.8981   91.3718   16.0087 C.ar    1  UNL1        0.0000
     17 C          65.6544   91.0685   14.7493 C.ar    1  UNL1        0.0000
     18 C          65.1867   89.9715   13.8394 C.ar    1  UNL1        0.0000
     19 N          63.2522   84.1200   13.2334 N.pl3   1  UNL1       -0.2932
     20 C          64.3453   83.2538   12.6815 C.3     1  UNL1        0.0922
     21 C          64.4578   81.8218   13.1136 C.3     1  UNL1        0.0215
     22 C          63.4772   81.2561   14.0976 C.3     1  UNL1        0.0035
     23 C          62.3841   82.1224   14.6495 C.3     1  UNL1        0.0215
     24 C          62.2716   83.5544   14.2174 C.3     1  UNL1        0.0922
     25 C          64.1876   86.3139   15.0532 C.2     1  UNL1        0.0756
     26 O          65.6530   86.0216   15.1849 O.co2   1  UNL1       -0.5445
     27 O          63.3026   86.2712   16.2634 O.co2   1  UNL1       -0.5445
@<TRIPOS>UNITY_ATOM_ATTR
26 1
charge -1
@<TRIPOS>BOND
     1     1     2    1
     2     2     3   ar
     3     3     4   ar
     4     4     5    1
     5     4     6   ar
     6     6     7   ar
     7     7     8   ar
     8     8    13    1
     9    13    14   ar
    10    14    15   ar
    11    15    16   ar
    12    16    17   ar
    13    17    18   ar
    14     8     9   ar
    15     9    25    1
    16    25    26   ar
    17    25    27   ar
    18     9    10   ar
    19    10    19    1
    20    19    20    1
    21    20    21    1
    22    21    22    1
    23    22    23    1
    24    23    24    1
    25    10    11   ar
    26    11    12   ar
    27    12     2   ar
    28    12     7   ar
    29    18    13   ar
    30    24    19    1
@<TRIPOS>MOLECULE
*****
 27 30 0 0 0
SMALL
GASTEIGER

@<TRIPOS>ATOM
      1 C          63.8413   92.6171    1.9819 C.3     1  UNL1        0.0326
      2 C          62.3643   92.7866    1.7826 C.ar    1  UNL1       -0.0033
      3 C          61.4184   92.5120    2.9139 C.ar    1  UNL1        0.0086
      4 C          59.9414   92.6815    2.7146 C.ar    1  UNL1        0.0575
      5 CL         58.9955   92.4068    3.8460 Cl      1  UNL1       -0.0823
      6 C          59.4103   93.1257    1.3840 C.ar    1  UNL1        0.0129
      7 C          60.3561   93.4003    0.2527 C.ar    1  UNL1        0.0184
      8 C          59.8250   93.8445   -1.0780 C.ar    1  UNL1        0.0053
      9 C          60.7709   94.1192   -2.2093 C.ar    1  UNL1        0.0456
     10 C          62.2479   93.9496   -2.0100 C.ar    1  UNL1        0.1326
     11 N          62.7790   93.5054   -0.6794 N.ar    1  UNL1       -0.2310
     12 C          61.8331   93.2308    0.4520 C.ar    1  UNL1        0.0787
     13 C          58.3480   94.0141   -1.2773 C.ar    1  UNL1        0.0002
     14 C          57.5075   92.8423   -1.6901 C.ar    1  UNL1        0.0000
     15 C          56.0305   93.0119   -1.8894 C.ar    1  UNL1        0.0000
     16 C          55.3940   94.3532   -1.6759 C.ar    1  UNL1        0.0000
     17 C          56.2345   95.5251   -1.2631 C.ar    1  UNL1        0.0000
     18 C          57.7115   95.3555   -1.0638 C.ar    1  UNL1        0.0000
     19 N          63.1938   94.2243   -3.1414 N.pl3   1  UNL1       -0.2932
     20 C          63.8156   95.5816   -3.2864 C.3     1  UNL1        0.0922
     21 C          64.7614   95.8563   -4.4177 C.3     1  UNL1        0.0215
     22 C          65.0854   94.7737   -5.4040 C.3     1  UNL1        0.0035
     23 C          64.4636   93.4164   -5.2590 C.3     1  UNL1        0.0215
     24 C          63.5177   93.1417   -4.1277 C.3     1  UNL1        0.0922
     25 C          60.2398   94.5634   -3.5400 C.2     1  UNL1        0.0756
     26 O          59.5907   93.5703   -4.4579 O.co2   1  UNL1       -0.5445
     27 O          60.3577   96.0006   -3.9527 O.co2   1  UNL1       -0.5445
@<TRIPOS>UNITY_ATOM_ATTR
26 1
charge -1
@<TRIPOS>BOND
     1     1     2    1
     2     2     3   ar
     3     3     4   ar
     4     4     5    1
     5     4     6   ar
     6     6     7   ar
     7     7     8   ar
     8     8    13    1
     9    13    14   ar
    10    14    15   ar
    11    15    16   ar
    12    16    17   ar
    13    17    18   ar
    14     8     9   ar
    15     9    25    1
    16    25    26   ar
    17    25    27   ar
    18     9    10   ar
    19    10    19    1
    20    19    20    1
    21    20    21    1
    22    21    22    1
    23    22    23    1
    24    23    24    1
    25    10    11   ar
    26    11    12   ar
    27    12     2   ar
    28    12     7   ar
    29    18    13   ar
    30    24    19    1
@<TRIPOS>MOLECULE
*****
 27 30 0 0 0
SMALL
GASTEIGER

@<TRIPOS>ATOM
      1 C          62.7391   83.2267   11.5736 C.3     1  UNL1        0.0326
      2 C          63.2796   84.3384   12.4234 C.ar    1  UNL1       -0.0033
      3 C          64.1740   84.0266   13.5864 C.ar    1  UNL1        0.0086
      4 C          64.7145   85.1382   14.4361 C.ar    1  UNL1        0.0575
      5 CL         65.6091   84.8263   15.5992 Cl      1  UNL1       -0.0823
      6 C          64.3605   86.5618   14.1229 C.ar    1  UNL1        0.0129
      7 C          63.4660   86.8736   12.9599 C.ar    1  UNL1        0.0184
      8 C          63.1119   88.2972   12.6466 C.ar    1  UNL1        0.0053
      9 C          62.2174   88.6091   11.4836 C.ar    1  UNL1        0.0456
     10 C          61.6770   87.4974   10.6339 C.ar    1  UNL1        0.1326
     11 N          62.0310   86.0739   10.9471 N.ar    1  UNL1       -0.2310
     12 C          62.9255   85.7620   12.1102 C.ar    1  UNL1        0.0787
     13 C          63.6524   89.4089   13.4964 C.ar    1  UNL1        0.0002
     14 C          64.6570   90.3669   12.9281 C.ar    1  UNL1        0.0000
     15 C          65.1974   91.4786   13.7778 C.ar    1  UNL1        0.0000
     16 C          64.7333   91.6322   15.1959 C.ar    1  UNL1        0.0000
     17 C          63.7287   90.6742   15.7643 C.ar    1  UNL1        0.0000
     18 C          63.1882   89.5625   14.9145 C.ar    1  UNL1        0.0000
     19 N          60.7824   87.8093    9.4708 N.pl3   1  UNL1       -0.2932
     20 C          60.7124   89.2076    8.9324 C.3     1  UNL1        0.0922
     21 C          59.8180   89.5196    7.7694 C.3     1  UNL1        0.0215
     22 C          58.9935   88.4333    7.1449 C.3     1  UNL1        0.0035
     23 C          59.0635   87.0350    7.6833 C.3     1  UNL1        0.0215
     24 C          59.9580   86.7230    8.8463 C.3     1  UNL1        0.0922
     25 C          61.8634   90.0327   11.1703 C.2     1  UNL1        0.0756
     26 O          62.8001   90.8772   10.3583 O.co2   1  UNL1       -0.5445
     27 O          60.5727   90.6117   11.6691 O.co2   1  UNL1       -0.5445
@<TRIPOS>UNITY_ATOM_ATTR
26 1
charge -1
@<TRIPOS>BOND
     1     1     2    1
     2     2     3   ar
     3     3     4   ar
     4     4     5    1
     5     4     6   ar
     6     6     7   ar
     7     7     8   ar
     8     8    13    1
     9    13    14   ar
    10    14    15   ar
    11    15    16   ar
    12    16    17   ar
    13    17    18   ar
    14     8     9   ar
    15     9    25    1
    16    25    26   ar
    17    25    27   ar
    18     9    10   ar
    19    10    19    1
    20    19    20    1
    21    20    21    1
    22    21    22    1
    23    22    23    1
    24    23    24    1
    25    10    11   ar
    26    11    12   ar
    27    12     2   ar
    28    12     7   ar
    29    18    13   ar
    30    24    19    1
@<TRIPOS>MOLECULE
*****
 27 30 0 0 0
SMALL
GASTEIGER

@<TRIPOS>ATOM
      1 C          63.7779   94.9771   -5.5023 C.3     1  UNL1        0.0326
      2 C          62.3066   94.7487   -5.3207 C.ar    1  UNL1       -0.0033
      3 C          61.4125   94.6294   -6.5191 C.ar    1  UNL1        0.0086
      4 C          59.9412   94.4010   -6.3375 C.ar    1  UNL1        0.0575
      5 CL         59.0471   94.2818   -7.5361 Cl      1  UNL1       -0.0823
      6 C          59.3639   94.2917   -4.9574 C.ar    1  UNL1        0.0129
      7 C          60.2580   94.4109   -3.7589 C.ar    1  UNL1        0.0184
      8 C          59.6808   94.3017   -2.3787 C.ar    1  UNL1        0.0053
      9 C          60.5748   94.4209   -1.1802 C.ar    1  UNL1        0.0456
     10 C          62.0462   94.6494   -1.3619 C.ar    1  UNL1        0.1326
     11 N          62.6234   94.7586   -2.7420 N.ar    1  UNL1       -0.2310
     12 C          61.7293   94.6394   -3.9406 C.ar    1  UNL1        0.0787
     13 C          58.2094   94.0732   -2.1970 C.ar    1  UNL1        0.0002
     14 C          57.6686   92.6752   -2.1431 C.ar    1  UNL1        0.0000
     15 C          56.1972   92.4467   -1.9615 C.ar    1  UNL1        0.0000
     16 C          55.2668   93.6163   -1.8337 C.ar    1  UNL1        0.0000
     17 C          55.8076   95.0144   -1.8876 C.ar    1  UNL1        0.0000
     18 C          57.2790   95.2428   -2.0693 C.ar    1  UNL1        0.0000
     19 N          62.9402   94.7686   -0.1633 N.pl3   1  UNL1       -0.2932
     20 C          63.1848   96.1111    0.4594 C.3     1  UNL1        0.0922
     21 C          64.0788   96.2304    1.6579 C.3     1  UNL1        0.0215
     22 C          64.7283   95.0071    2.2337 C.3     1  UNL1        0.0035
     23 C          64.4838   93.6645    1.6110 C.3     1  UNL1        0.0215
     24 C          63.5897   93.5453    0.4125 C.3     1  UNL1        0.0922
     25 C          59.9976   94.3116    0.2000 C.2     1  UNL1        0.0756
     26 O          59.5171   95.5416    0.9115 O.co2   1  UNL1       -0.5445
     27 O          59.9009   92.9724    0.8687 O.co2   1  UNL1       -0.5445
@<TRIPOS>UNITY_ATOM_ATTR
26 1
charge -1
@<TRIPOS>BOND
     1     1     2    1
     2     2     3   ar
     3     3     4   ar
     4     4     5    1
     5     4     6   ar
     6     6     7   ar
     7     7     8   ar
     8     8    13    1
     9    13    14   ar
    10    14    15   ar
    11    15    16   ar
    12    16    17   ar
    13    17    18   ar
    14     8     9   ar
    15     9    25    1
    16    25    26   ar
    17    25    27   ar
    18     9    10   ar
    19    10    19    1
    20    19    20    1
    21    20    21    1
    22    21    22    1
    23    22    23    1
    24    23    24    1
    25    10    11   ar
    26    11    12   ar
    27    12     2   ar
    28    12     7   ar
    29    18    13   ar
    30    24    19    1
