@<TRIPOS>MOLECULE
*****
 41 44 0 0 0
SMALL
GASTEIGER

@<TRIPOS>ATOM
      1 N          63.1767   89.0609   11.5189 N.am    1  UNL1       -0.2927
      2 C          61.6894   88.9513   11.3587 C.2     1  UNL1        0.2508
      3 O          60.7779   89.6921   12.2917 O.2     1  UNL1       -0.2700
      4 H          63.7749   88.5746   10.9066 H       1  UNL1        0.1502
      5 C          61.1134   88.1008   10.2655 C.ar    1  UNL1        0.1068
      6 C          59.9783   88.6178    9.4322 C.ar    1  UNL1        0.0108
      7 C          59.4024   87.7673    8.3391 C.ar    1  UNL1        0.0210
      8 C          59.9616   86.3999    8.0792 C.ar    1  UNL1        0.1021
      9 N          61.0967   85.8830    8.9124 N.ar    1  UNL1       -0.2097
     10 C          61.6726   86.7334   10.0056 C.ar    1  UNL1        0.2340
     11 O          62.8077   86.2165   10.8389 O.3     1  UNL1       -0.4351
     12 C          62.7521   84.8278   11.4032 C.ar    1  UNL1        0.1576
     13 C          62.2012   84.5990   12.7796 C.ar    1  UNL1        0.0384
     14 C          62.1456   83.2103   13.3439 C.ar    1  UNL1        0.0070
     15 C          62.6409   82.0504   12.5318 C.ar    1  UNL1        0.0725
     16 C          63.1917   82.2792   11.1555 C.ar    1  UNL1        0.0183
     17 C          63.2473   83.6679   10.5912 C.ar    1  UNL1        0.0921
     18 CL         63.7981   83.8966    9.2148 Cl      1  UNL1       -0.0791
     19 C          62.5853   80.6617   13.0961 C.3     1  UNL1        0.4186
     20 F          62.5297   79.2730   13.6604 F       1  UNL1       -0.1659
     21 F          62.8315   80.0962   11.7288 F       1  UNL1       -0.1659
     22 F          62.3391   81.2272   14.4634 F       1  UNL1       -0.1659
     23 C          63.7527   89.9113   12.6122 C.3     1  UNL1        0.1789
     24 C          64.2464   91.2941   12.3054 C.2     1  UNL1        0.2462
     25 O          63.6915   92.0454   11.1316 O.2     1  UNL1       -0.2730
     26 N          65.2950   91.9257   13.1723 N.am    1  UNL1       -0.2753
     27 C          65.8498   91.1744   14.3460 C.3     1  UNL1        0.1108
     28 C          66.8985   91.8059   15.2131 C.3     1  UNL1        0.0939
     29 N          67.3922   93.1887   14.9063 N.3     1  UNL1       -0.2686
     30 C          68.4407   93.8202   15.7732 C.3     1  UNL1        0.0897
     31 C          66.8373   93.9400   13.7325 C.3     1  UNL1        0.0939
     32 C          65.7887   93.3084   12.8655 C.3     1  UNL1        0.1108
     33 C          63.8349   89.3790   14.0121 C.3     1  UNL1        0.1716
     34 O          62.9149   89.9095   15.0714 O.3     1  UNL1       -0.3434
     35 C          62.9577   89.3370   16.4573 C.3     1  UNL1        0.2078
     36 C          64.1200   84.2351   15.7503 C.3     1  UNL1        0.0950
     37 C          63.5740   85.5071   16.3282 C.ar    1  UNL1        0.2059
     38 N          62.7580   85.6273   17.5812 N.ar    1  UNL1       -0.2107
     39 C          62.4279   87.0766   17.7820 C.ar    1  UNL1        0.1372
     40 C          63.0398   87.8522   16.6532 C.ar    1  UNL1        0.1732
     41 O          63.7481   86.8821   15.7547 O.2     1  UNL1       -0.4401
@<TRIPOS>BOND
     1    36    37    1
     2    37    38   ar
     3    38    39   ar
     4    39    40   ar
     5    40    35    1
     6    35    34    1
     7    34    33    1
     8    23    33    1
     9    23     1    1
    10     1     2   am
    11     2     3    2
    12     2     5    1
    13     5     6   ar
    14     6     7   ar
    15     7     8   ar
    16     8     9   ar
    17     9    10   ar
    18    10    11    1
    19    11    12    1
    20    12    13   ar
    21    13    14   ar
    22    14    15   ar
    23    15    19    1
    24    19    20    1
    25    19    21    1
    26    19    22    1
    27    15    16   ar
    28    16    17   ar
    29    17    18    1
    30    23    24    1
    31    24    25    2
    32    24    26   am
    33    26    27    1
    34    27    28    1
    35    28    29    1
    36    29    30    1
    37    29    31    1
    38    31    32    1
    39    40    41   ar
    40    41    37   ar
    41    10     5   ar
    42    17    12   ar
    43    32    26    1
    44     1     4    1
@<TRIPOS>MOLECULE
*****
 41 44 0 0 0
SMALL
GASTEIGER

@<TRIPOS>ATOM
      1 N          63.7933   88.6305   12.8930 N.am    1  UNL1       -0.2927
      2 C          63.8848   87.7671   14.1162 C.2     1  UNL1        0.2508
      3 O          63.9083   88.3958   15.4779 O.2     1  UNL1       -0.2700
      4 H          63.7779   88.2179   11.9993 H       1  UNL1        0.1502
      5 C          63.9527   86.2750   13.9777 C.ar    1  UNL1        0.1068
      6 C          64.7776   85.4695   14.9372 C.ar    1  UNL1        0.0108
      7 C          64.8455   83.9775   14.7987 C.ar    1  UNL1        0.0210
      8 C          64.0886   83.2910   13.7006 C.ar    1  UNL1        0.1021
      9 N          63.2637   84.0965   12.7411 N.ar    1  UNL1       -0.2097
     10 C          63.1958   85.5885   12.8796 C.ar    1  UNL1        0.2340
     11 O          62.3709   86.3941   11.9201 O.3     1  UNL1       -0.4351
     12 C          62.2273   85.9468   10.4955 C.ar    1  UNL1        0.1576
     13 C          63.2053   84.9692    9.9142 C.ar    1  UNL1        0.0384
     14 C          63.0617   84.5219    8.4897 C.ar    1  UNL1        0.0070
     15 C          61.9402   85.0522    7.6465 C.ar    1  UNL1        0.0725
     16 C          60.9623   86.0298    8.2278 C.ar    1  UNL1        0.0183
     17 C          61.1058   86.4771    9.6523 C.ar    1  UNL1        0.0921
     18 CL         60.1278   87.4547   10.2337 Cl      1  UNL1       -0.0791
     19 C          61.7966   84.6049    6.2219 C.3     1  UNL1        0.4186
     20 F          61.6531   84.1576    4.7974 F       1  UNL1       -0.1659
     21 F          60.3045   84.5967    6.3749 F       1  UNL1       -0.1659
     22 F          63.2888   84.6131    6.0690 F       1  UNL1       -0.1659
     23 C          63.7253   90.1226   13.0315 C.3     1  UNL1        0.1789
     24 C          63.9633   90.7635   14.3667 C.2     1  UNL1        0.2462
     25 O          62.8819   90.7547   15.4062 O.2     1  UNL1       -0.2730
     26 N          65.2826   91.4131   14.6624 N.am    1  UNL1       -0.2753
     27 C          66.3639   91.4218   13.6229 C.3     1  UNL1        0.1108
     28 C          67.6833   92.0714   13.9186 C.3     1  UNL1        0.0939
     29 N          67.9212   92.7123   15.2537 N.3     1  UNL1       -0.2686
     30 C          69.2405   93.3618   15.5494 C.3     1  UNL1        0.0897
     31 C          66.8398   92.7035   16.2932 C.3     1  UNL1        0.0939
     32 C          65.5205   92.0539   15.9976 C.3     1  UNL1        0.1108
     33 C          63.4195   90.9737   11.8349 C.3     1  UNL1        0.1716
     34 O          64.5375   91.5898   11.0473 O.3     1  UNL1       -0.3434
     35 C          64.9885   92.9876   11.3525 C.3     1  UNL1        0.2078
     36 C          67.6561   96.4751    8.4196 C.3     1  UNL1        0.0950
     37 C          67.2854   95.2316    9.1723 C.ar    1  UNL1        0.2059
     38 N          68.1288   93.9985    9.3076 N.ar    1  UNL1       -0.2107
     39 C          67.3710   93.0078   10.1407 C.ar    1  UNL1        0.1372
     40 C          66.0593   93.6286   10.5204 C.ar    1  UNL1        0.1732
     41 O          66.0064   95.0030    9.9219 O.2     1  UNL1       -0.4401
@<TRIPOS>BOND
     1    36    37    1
     2    37    38   ar
     3    38    39   ar
     4    39    40   ar
     5    40    35    1
     6    35    34    1
     7    34    33    1
     8    23    33    1
     9    23     1    1
    10     1     2   am
    11     2     3    2
    12     2     5    1
    13     5     6   ar
    14     6     7   ar
    15     7     8   ar
    16     8     9   ar
    17     9    10   ar
    18    10    11    1
    19    11    12    1
    20    12    13   ar
    21    13    14   ar
    22    14    15   ar
    23    15    19    1
    24    19    20    1
    25    19    21    1
    26    19    22    1
    27    15    16   ar
    28    16    17   ar
    29    17    18    1
    30    23    24    1
    31    24    25    2
    32    24    26   am
    33    26    27    1
    34    27    28    1
    35    28    29    1
    36    29    30    1
    37    29    31    1
    38    31    32    1
    39    40    41   ar
    40    41    37   ar
    41    10     5   ar
    42    17    12   ar
    43    32    26    1
    44     1     4    1
@<TRIPOS>MOLECULE
*****
 41 44 0 0 0
SMALL
GASTEIGER

@<TRIPOS>ATOM
      1 N          63.5223   89.5682   11.9197 N.am    1  UNL1       -0.2927
      2 C          62.0444   89.3118   11.9262 C.2     1  UNL1        0.2508
      3 O          61.1838   89.9114   12.9985 O.2     1  UNL1       -0.2700
      4 H          64.0871   89.1747   11.2159 H       1  UNL1        0.1502
      5 C          61.4271   88.4557   10.8602 C.ar    1  UNL1        0.1068
      6 C          60.4406   89.0497    9.8990 C.ar    1  UNL1        0.0108
      7 C          59.8233   88.1937    8.8332 C.ar    1  UNL1        0.0210
      8 C          60.1925   86.7436    8.7285 C.ar    1  UNL1        0.1021
      9 N          61.1790   86.1496    9.6897 N.ar    1  UNL1       -0.2097
     10 C          61.7962   87.0056   10.7556 C.ar    1  UNL1        0.2340
     11 O          62.7828   86.4116   11.7169 O.3     1  UNL1       -0.4351
     12 C          62.7017   84.9563   12.0711 C.ar    1  UNL1        0.1576
     13 C          62.1864   84.5396   13.4169 C.ar    1  UNL1        0.0384
     14 C          62.1053   83.0843   13.7711 C.ar    1  UNL1        0.0070
     15 C          62.5394   82.0457   12.7796 C.ar    1  UNL1        0.0725
     16 C          63.0547   82.4624   11.4340 C.ar    1  UNL1        0.0183
     17 C          63.1358   83.9177   11.0797 C.ar    1  UNL1        0.0921
     18 CL         63.6510   84.3345    9.7340 Cl      1  UNL1       -0.0791
     19 C          62.4583   80.5904   13.1339 C.3     1  UNL1        0.4186
     20 F          62.3772   79.1351   13.4882 F       1  UNL1       -0.1659
     21 F          62.0649   80.9534   14.5351 F       1  UNL1       -0.1659
     22 F          62.8518   80.2274   11.7327 F       1  UNL1       -0.1659
     23 C          64.1396   90.4243   12.9856 C.3     1  UNL1        0.1789
     24 C          63.6744   90.3046   14.4067 C.2     1  UNL1        0.2462
     25 O          63.2354   91.5266   15.1576 O.2     1  UNL1       -0.2730
     26 N          63.6482   88.9628   15.0767 N.am    1  UNL1       -0.2753
     27 C          64.0872   87.7408   14.3258 C.3     1  UNL1        0.1108
     28 C          64.0611   86.3990   14.9958 C.3     1  UNL1        0.0939
     29 N          63.5959   86.2793   16.4168 N.3     1  UNL1       -0.2686
     30 C          63.5697   84.9375   17.0869 C.3     1  UNL1        0.0897
     31 C          63.1569   87.5014   17.1678 C.3     1  UNL1        0.0939
     32 C          63.1830   88.8431   16.4977 C.3     1  UNL1        0.1108
     33 C          65.2221   91.4000   12.6305 C.3     1  UNL1        0.1716
     34 O          65.3426   92.6926   13.3819 O.3     1  UNL1       -0.3434
     35 C          66.2814   93.7574   12.8969 C.3     1  UNL1        0.2078
     36 C          68.8327   92.2419    8.5295 C.3     1  UNL1        0.0950
     37 C          67.9739   93.0185    9.4830 C.ar    1  UNL1        0.2059
     38 N          67.2281   94.2817    9.1694 N.ar    1  UNL1       -0.2107
     39 C          66.5033   94.7122   10.4101 C.ar    1  UNL1        0.1372
     40 C          66.8011   93.7151   11.4905 C.ar    1  UNL1        0.1732
     41 O          67.7100   92.6684   10.9175 O.2     1  UNL1       -0.4401
@<TRIPOS>BOND
     1    36    37    1
     2    37    38   ar
     3    38    39   ar
     4    39    40   ar
     5    40    35    1
     6    35    34    1
     7    34    33    1
     8    23    33    1
     9    23     1    1
    10     1     2   am
    11     2     3    2
    12     2     5    1
    13     5     6   ar
    14     6     7   ar
    15     7     8   ar
    16     8     9   ar
    17     9    10   ar
    18    10    11    1
    19    11    12    1
    20    12    13   ar
    21    13    14   ar
    22    14    15   ar
    23    15    19    1
    24    19    20    1
    25    19    21    1
    26    19    22    1
    27    15    16   ar
    28    16    17   ar
    29    17    18    1
    30    23    24    1
    31    24    25    2
    32    24    26   am
    33    26    27    1
    34    27    28    1
    35    28    29    1
    36    29    30    1
    37    29    31    1
    38    31    32    1
    39    40    41   ar
    40    41    37   ar
    41    10     5   ar
    42    17    12   ar
    43    32    26    1
    44     1     4    1
@<TRIPOS>MOLECULE
*****
 41 44 0 0 0
SMALL
GASTEIGER

@<TRIPOS>ATOM
      1 N          63.7863   89.3933   13.4923 N.am    1  UNL1       -0.2927
      2 C          63.9119   89.4571   14.9856 C.2     1  UNL1        0.2508
      3 O          64.4668   90.6876   15.6397 O.2     1  UNL1       -0.2700
      4 H          63.4221   88.5856   13.0630 H       1  UNL1        0.1502
      5 C          63.4825   88.2903   15.8249 C.ar    1  UNL1        0.1068
      6 C          63.0418   88.5077   17.2421 C.ar    1  UNL1        0.0108
      7 C          62.6125   87.3409   18.0814 C.ar    1  UNL1        0.0210
      8 C          62.6240   85.9568   17.5034 C.ar    1  UNL1        0.1021
      9 N          63.0647   85.7394   16.0862 N.ar    1  UNL1       -0.2097
     10 C          63.4940   86.9062   15.2470 C.ar    1  UNL1        0.2340
     11 O          63.9347   86.6888   13.8297 O.3     1  UNL1       -0.4351
     12 C          63.7321   85.3532   13.1778 C.ar    1  UNL1        0.1576
     13 C          62.6179   85.1610   12.1921 C.ar    1  UNL1        0.0384
     14 C          62.4153   83.8253   11.5402 C.ar    1  UNL1        0.0070
     15 C          63.3270   82.6819   11.8739 C.ar    1  UNL1        0.0725
     16 C          64.4413   82.8741   12.8596 C.ar    1  UNL1        0.0183
     17 C          64.6438   84.2097   13.5115 C.ar    1  UNL1        0.0921
     18 CL         65.7581   84.4019   14.4972 Cl      1  UNL1       -0.0791
     19 C          63.1245   81.3462   11.2220 C.3     1  UNL1        0.4186
     20 F          62.9219   80.0106   10.5701 F       1  UNL1       -0.1659
     21 F          62.3317   80.8868   12.4096 F       1  UNL1       -0.1659
     22 F          63.9173   81.8057   10.0344 F       1  UNL1       -0.1659
     23 C          64.2156   90.5601   12.6530 C.3     1  UNL1        0.1789
     24 C          63.4692   90.8944   11.3955 C.2     1  UNL1        0.2462
     25 O          63.7300   92.1929   10.6913 O.2     1  UNL1       -0.2730
     26 N          62.4621   89.9302   10.8423 N.am    1  UNL1       -0.2753
     27 C          62.2014   88.6318   11.5466 C.3     1  UNL1        0.1108
     28 C          61.1942   87.6676   10.9934 C.3     1  UNL1        0.0939
     29 N          60.4478   88.0019    9.7360 N.3     1  UNL1       -0.2686
     30 C          59.4407   87.0377    9.1828 C.3     1  UNL1        0.0897
     31 C          60.7086   89.3004    9.0317 C.3     1  UNL1        0.0939
     32 C          61.7157   90.2646    9.5849 C.3     1  UNL1        0.1108
     33 C          65.3913   91.3925   13.0711 C.3     1  UNL1        0.1716
     34 O          65.2053   92.8462   13.3903 O.3     1  UNL1       -0.3434
     35 C          66.2015   93.8551   12.9006 C.3     1  UNL1        0.2078
     36 C          68.8053   92.2067    8.6129 C.3     1  UNL1        0.0950
     37 C          67.9297   93.0084    9.5299 C.ar    1  UNL1        0.2059
     38 N          67.1713   94.2495    9.1630 N.ar    1  UNL1       -0.2107
     39 C          66.4317   94.7177   10.3811 C.ar    1  UNL1        0.1372
     40 C          66.7329   93.7660   11.5007 C.ar    1  UNL1        0.1732
     41 O          67.6587   92.7096   10.9746 O.2     1  UNL1       -0.4401
@<TRIPOS>BOND
     1    36    37    1
     2    37    38   ar
     3    38    39   ar
     4    39    40   ar
     5    40    35    1
     6    35    34    1
     7    34    33    1
     8    23    33    1
     9    23     1    1
    10     1     2   am
    11     2     3    2
    12     2     5    1
    13     5     6   ar
    14     6     7   ar
    15     7     8   ar
    16     8     9   ar
    17     9    10   ar
    18    10    11    1
    19    11    12    1
    20    12    13   ar
    21    13    14   ar
    22    14    15   ar
    23    15    19    1
    24    19    20    1
    25    19    21    1
    26    19    22    1
    27    15    16   ar
    28    16    17   ar
    29    17    18    1
    30    23    24    1
    31    24    25    2
    32    24    26   am
    33    26    27    1
    34    27    28    1
    35    28    29    1
    36    29    30    1
    37    29    31    1
    38    31    32    1
    39    40    41   ar
    40    41    37   ar
    41    10     5   ar
    42    17    12   ar
    43    32    26    1
    44     1     4    1
@<TRIPOS>MOLECULE
*****
 41 44 0 0 0
SMALL
GASTEIGER

@<TRIPOS>ATOM
      1 N          62.9759   89.0440   12.9299 N.am    1  UNL1       -0.2927
      2 C          63.1638   89.4792   14.3530 C.2     1  UNL1        0.2508
      3 O          63.3046   90.9365   14.6793 O.2     1  UNL1       -0.2700
      4 H          62.8835   88.0876   12.7158 H       1  UNL1        0.1502
      5 C          63.2107   88.4571   15.4500 C.ar    1  UNL1        0.1068
      6 C          62.8505   88.8458   16.8532 C.ar    1  UNL1        0.0108
      7 C          62.8975   87.8237   17.9500 C.ar    1  UNL1        0.0210
      8 C          63.3046   86.4129   17.6436 C.ar    1  UNL1        0.1021
      9 N          63.6648   86.0242   16.2404 N.ar    1  UNL1       -0.2097
     10 C          63.6178   87.0463   15.1435 C.ar    1  UNL1        0.2340
     11 O          63.9780   86.6576   13.7402 O.3     1  UNL1       -0.4351
     12 C          63.7306   85.2572   13.2629 C.ar    1  UNL1        0.1576
     13 C          62.5398   84.9579   12.4013 C.ar    1  UNL1        0.0384
     14 C          62.2925   83.5575   11.9240 C.ar    1  UNL1        0.0070
     15 C          63.2360   82.4565   12.3084 C.ar    1  UNL1        0.0725
     16 C          64.4268   82.7559   13.1700 C.ar    1  UNL1        0.0183
     17 C          64.6741   84.1563   13.6472 C.ar    1  UNL1        0.0921
     18 CL         65.8649   84.4557   14.5089 Cl      1  UNL1       -0.0791
     19 C          62.9887   81.0561   11.8311 C.3     1  UNL1        0.4186
     20 F          62.7413   79.6558   11.3539 F       1  UNL1       -0.1659
     21 F          63.2034   81.5009   10.4148 F       1  UNL1       -0.1659
     22 F          62.7739   80.6114   13.2475 F       1  UNL1       -0.1659
     23 C          62.9290   90.0661   11.8330 C.3     1  UNL1        0.1789
     24 C          61.7197   90.1647   10.9510 C.2     1  UNL1        0.2462
     25 O          60.8737   91.4033   10.9738 O.2     1  UNL1       -0.2730
     26 N          61.3563   89.0249   10.0463 N.am    1  UNL1       -0.2753
     27 C          62.2023   87.7864   10.0235 C.3     1  UNL1        0.1108
     28 C          61.8389   86.6465    9.1187 C.3     1  UNL1        0.0939
     29 N          60.6296   86.7451    8.2367 N.3     1  UNL1       -0.2686
     30 C          60.2663   85.6052    7.3320 C.3     1  UNL1        0.0897
     31 C          59.7837   87.9836    8.2596 C.3     1  UNL1        0.0939
     32 C          60.1470   89.1235    9.1643 C.3     1  UNL1        0.1108
     33 C          64.0913   90.9896   11.6181 C.3     1  UNL1        0.1716
     34 O          64.3196   92.1384   12.5552 O.3     1  UNL1       -0.3434
     35 C          65.6270   92.8737   12.5358 C.3     1  UNL1        0.2078
     36 C          69.1633   94.1196   16.2536 C.3     1  UNL1        0.0950
     37 C          68.1837   93.3514   15.4167 C.ar    1  UNL1        0.2059
     38 N          67.7991   91.9139   15.6060 N.ar    1  UNL1       -0.2107
     39 C          66.7945   91.5600   14.5498 C.ar    1  UNL1        0.1372
     40 C          66.5583   92.7787   13.7078 C.ar    1  UNL1        0.1732
     41 O          67.4169   93.8859   14.2436 O.2     1  UNL1       -0.4401
@<TRIPOS>BOND
     1    36    37    1
     2    37    38   ar
     3    38    39   ar
     4    39    40   ar
     5    40    35    1
     6    35    34    1
     7    34    33    1
     8    23    33    1
     9    23     1    1
    10     1     2   am
    11     2     3    2
    12     2     5    1
    13     5     6   ar
    14     6     7   ar
    15     7     8   ar
    16     8     9   ar
    17     9    10   ar
    18    10    11    1
    19    11    12    1
    20    12    13   ar
    21    13    14   ar
    22    14    15   ar
    23    15    19    1
    24    19    20    1
    25    19    21    1
    26    19    22    1
    27    15    16   ar
    28    16    17   ar
    29    17    18    1
    30    23    24    1
    31    24    25    2
    32    24    26   am
    33    26    27    1
    34    27    28    1
    35    28    29    1
    36    29    30    1
    37    29    31    1
    38    31    32    1
    39    40    41   ar
    40    41    37   ar
    41    10     5   ar
    42    17    12   ar
    43    32    26    1
    44     1     4    1
@<TRIPOS>MOLECULE
*****
 41 44 0 0 0
SMALL
GASTEIGER

@<TRIPOS>ATOM
      1 N          61.8275   85.2734   12.0093 N.am    1  UNL1       -0.2927
      2 C          62.1272   85.4133   10.5463 C.2     1  UNL1        0.2508
      3 O          63.3956   84.8443    9.9828 O.2     1  UNL1       -0.2700
      4 H          60.9950   85.6468   12.3792 H       1  UNL1        0.1502
      5 C          61.1585   86.1222    9.6467 C.ar    1  UNL1        0.1068
      6 C          60.9073   85.6069    8.2606 C.ar    1  UNL1        0.0108
      7 C          59.9386   86.3158    7.3611 C.ar    1  UNL1        0.0210
      8 C          59.2213   87.5400    7.8477 C.ar    1  UNL1        0.1021
      9 N          59.4725   88.0553    9.2337 N.ar    1  UNL1       -0.2097
     10 C          60.4412   87.3464   10.1333 C.ar    1  UNL1        0.2340
     11 O          60.6925   87.8617   11.5194 O.3     1  UNL1       -0.4351
     12 C          61.7578   88.8909   11.7553 C.ar    1  UNL1        0.1576
     13 C          62.9742   88.5405   12.5601 C.ar    1  UNL1        0.0384
     14 C          64.0396   89.5697   12.7959 C.ar    1  UNL1        0.0070
     15 C          63.8886   90.9494   12.2269 C.ar    1  UNL1        0.0725
     16 C          62.6723   91.2998   11.4221 C.ar    1  UNL1        0.0183
     17 C          61.6069   90.2706   11.1863 C.ar    1  UNL1        0.0921
     18 CL         60.3905   90.6210   10.3814 Cl      1  UNL1       -0.0791
     19 C          64.9540   91.9787   12.4627 C.3     1  UNL1        0.4186
     20 F          66.0193   93.0079   12.6985 F       1  UNL1       -0.1659
     21 F          65.1939   91.4165   13.8325 F       1  UNL1       -0.1659
     22 F          64.7140   92.5409   11.0929 F       1  UNL1       -0.1659
     23 C          62.7962   84.5645   12.9089 C.3     1  UNL1        0.1789
     24 C          62.4260   83.2447   13.5181 C.2     1  UNL1        0.2462
     25 O          61.9338   83.1837   14.9337 O.2     1  UNL1       -0.2730
     26 N          62.5480   81.9859   12.7116 N.am    1  UNL1       -0.2753
     27 C          63.0402   82.0469   11.2960 C.3     1  UNL1        0.1108
     28 C          63.1622   80.7880   10.4894 C.3     1  UNL1        0.0939
     29 N          62.7921   79.4682   11.0985 N.3     1  UNL1       -0.2686
     30 C          62.9141   78.2094   10.2920 C.3     1  UNL1        0.0897
     31 C          62.2999   79.4072   12.5142 C.3     1  UNL1        0.0939
     32 C          62.1778   80.6660   13.3207 C.3     1  UNL1        0.1108
     33 C          64.1349   85.1754   13.1994 C.3     1  UNL1        0.1716
     34 O          64.9806   84.6338   14.3136 O.3     1  UNL1       -0.3434
     35 C          64.5113   84.7455   15.7339 C.3     1  UNL1        0.2078
     36 C          63.1263   89.8085   16.3073 C.3     1  UNL1        0.0950
     37 C          63.1777   88.3173   16.4613 C.ar    1  UNL1        0.2059
     38 N          62.3057   87.4934   17.3618 N.ar    1  UNL1       -0.2107
     39 C          62.6992   86.0551   17.1989 C.ar    1  UNL1        0.1372
     40 C          63.8143   85.9901   16.1978 C.ar    1  UNL1        0.1732
     41 O          64.1100   87.3882   15.7419 O.2     1  UNL1       -0.4401
@<TRIPOS>BOND
     1    36    37    1
     2    37    38   ar
     3    38    39   ar
     4    39    40   ar
     5    40    35    1
     6    35    34    1
     7    34    33    1
     8    23    33    1
     9    23     1    1
    10     1     2   am
    11     2     3    2
    12     2     5    1
    13     5     6   ar
    14     6     7   ar
    15     7     8   ar
    16     8     9   ar
    17     9    10   ar
    18    10    11    1
    19    11    12    1
    20    12    13   ar
    21    13    14   ar
    22    14    15   ar
    23    15    19    1
    24    19    20    1
    25    19    21    1
    26    19    22    1
    27    15    16   ar
    28    16    17   ar
    29    17    18    1
    30    23    24    1
    31    24    25    2
    32    24    26   am
    33    26    27    1
    34    27    28    1
    35    28    29    1
    36    29    30    1
    37    29    31    1
    38    31    32    1
    39    40    41   ar
    40    41    37   ar
    41    10     5   ar
    42    17    12   ar
    43    32    26    1
    44     1     4    1
@<TRIPOS>MOLECULE
*****
 41 44 0 0 0
SMALL
GASTEIGER

@<TRIPOS>ATOM
      1 N          63.5687   89.5467   11.7189 N.am    1  UNL1       -0.2927
      2 C          62.0873   89.3171   11.7709 C.2     1  UNL1        0.2508
      3 O          61.2687   89.9453   12.8596 O.2     1  UNL1       -0.2700
      4 H          64.1059   89.1344   11.0043 H       1  UNL1        0.1502
      5 C          61.4245   88.4592   10.7342 C.ar    1  UNL1        0.1068
      6 C          60.3876   89.0483    9.8244 C.ar    1  UNL1        0.0108
      7 C          59.7249   88.1904    8.7877 C.ar    1  UNL1        0.0210
      8 C          60.0989   86.7433    8.6609 C.ar    1  UNL1        0.1021
      9 N          61.1357   86.1542    9.5708 N.ar    1  UNL1       -0.2097
     10 C          61.7985   87.0121   10.6074 C.ar    1  UNL1        0.2340
     11 O          62.8354   86.4229   11.5173 O.3     1  UNL1       -0.4351
     12 C          62.7414   84.9835   11.9288 C.ar    1  UNL1        0.1576
     13 C          62.2398   84.6257   13.2965 C.ar    1  UNL1        0.0384
     14 C          62.1458   83.1863   13.7080 C.ar    1  UNL1        0.0070
     15 C          62.5534   82.1048   12.7518 C.ar    1  UNL1        0.0725
     16 C          63.0549   82.4626   11.3842 C.ar    1  UNL1        0.0183
     17 C          63.1488   83.9020   10.9727 C.ar    1  UNL1        0.0921
     18 CL         63.6504   84.2598    9.6050 Cl      1  UNL1       -0.0791
     19 C          62.4594   80.6654   13.1633 C.3     1  UNL1        0.4186
     20 F          62.3654   79.2260   13.5749 F       1  UNL1       -0.1659
     21 F          62.8804   80.2443   11.7866 F       1  UNL1       -0.1659
     22 F          62.0383   81.0865   14.5401 F       1  UNL1       -0.1659
     23 C          64.2315   90.4047   12.7556 C.3     1  UNL1        0.1789
     24 C          63.7156   90.4127   14.1640 C.2     1  UNL1        0.2462
     25 O          63.2717   91.7002   14.7929 O.2     1  UNL1       -0.2730
     26 N          63.6435   89.1332   14.9436 N.am    1  UNL1       -0.2753
     27 C          64.0873   87.8458   14.3148 C.3     1  UNL1        0.1108
     28 C          64.0153   86.5663   15.0944 C.3     1  UNL1        0.0939
     29 N          63.4993   86.5743   16.5029 N.3     1  UNL1       -0.2686
     30 C          63.4272   85.2949   17.2825 C.3     1  UNL1        0.0897
     31 C          63.0554   87.8618   17.1317 C.3     1  UNL1        0.0939
     32 C          63.1275   89.1412   16.3521 C.3     1  UNL1        0.1108
     33 C          65.4103   91.2545   12.3838 C.3     1  UNL1        0.1716
     34 O          65.2202   92.7131   12.0898 O.3     1  UNL1       -0.3434
     35 C          66.0004   93.7404   12.8555 C.3     1  UNL1        0.2078
     36 C          69.7632   92.4989   16.3455 C.3     1  UNL1        0.0950
     37 C          68.4249   92.7881   15.7330 C.ar    1  UNL1        0.2059
     38 N          67.1043   92.7550   16.4438 N.ar    1  UNL1       -0.2107
     39 C          66.0354   93.1077   15.4523 C.ar    1  UNL1        0.1372
     40 C          66.6953   93.3588   14.1288 C.ar    1  UNL1        0.1732
     41 O          68.1720   93.1613   14.3024 O.2     1  UNL1       -0.4401
@<TRIPOS>BOND
     1    36    37    1
     2    37    38   ar
     3    38    39   ar
     4    39    40   ar
     5    40    35    1
     6    35    34    1
     7    34    33    1
     8    23    33    1
     9    23     1    1
    10     1     2   am
    11     2     3    2
    12     2     5    1
    13     5     6   ar
    14     6     7   ar
    15     7     8   ar
    16     8     9   ar
    17     9    10   ar
    18    10    11    1
    19    11    12    1
    20    12    13   ar
    21    13    14   ar
    22    14    15   ar
    23    15    19    1
    24    19    20    1
    25    19    21    1
    26    19    22    1
    27    15    16   ar
    28    16    17   ar
    29    17    18    1
    30    23    24    1
    31    24    25    2
    32    24    26   am
    33    26    27    1
    34    27    28    1
    35    28    29    1
    36    29    30    1
    37    29    31    1
    38    31    32    1
    39    40    41   ar
    40    41    37   ar
    41    10     5   ar
    42    17    12   ar
    43    32    26    1
    44     1     4    1
@<TRIPOS>MOLECULE
*****
 41 44 0 0 0
SMALL
GASTEIGER

@<TRIPOS>ATOM
      1 N          62.9518   89.4091   10.5265 N.am    1  UNL1       -0.2927
      2 C          61.5015   89.5006   10.1550 C.2     1  UNL1        0.2508
      3 O          60.6884   90.6829   10.5923 O.2     1  UNL1       -0.2700
      4 H          63.4855   88.6331   10.2396 H       1  UNL1        0.1502
      5 C          60.8641   88.4098    9.3463 C.ar    1  UNL1        0.1068
      6 C          59.6820   88.7152    8.4750 C.ar    1  UNL1        0.0108
      7 C          59.0447   87.6244    7.6663 C.ar    1  UNL1        0.0210
      8 C          59.5895   86.2283    7.7289 C.ar    1  UNL1        0.1021
      9 N          60.7716   85.9229    8.6003 N.ar    1  UNL1       -0.2097
     10 C          61.4089   87.0136    9.4089 C.ar    1  UNL1        0.2340
     11 O          62.5911   86.7083   10.2803 O.3     1  UNL1       -0.4351
     12 C          62.6840   85.3857   10.9819 C.ar    1  UNL1        0.1576
     13 C          62.2617   85.2663   12.4163 C.ar    1  UNL1        0.0384
     14 C          62.3546   83.9437   13.1179 C.ar    1  UNL1        0.0070
     15 C          62.8697   82.7405   12.3850 C.ar    1  UNL1        0.0725
     16 C          63.2919   82.8600   10.9506 C.ar    1  UNL1        0.0183
     17 C          63.1991   84.1825   10.2491 C.ar    1  UNL1        0.0921
     18 CL         63.6213   84.3019    8.8146 Cl      1  UNL1       -0.0791
     19 C          62.9626   81.4180   13.0865 C.3     1  UNL1        0.4186
     20 F          63.0555   80.0954   13.7881 F       1  UNL1       -0.1659
     21 F          61.4660   81.3537   13.1634 F       1  UNL1       -0.1659
     22 F          64.4593   81.4823   13.0096 F       1  UNL1       -0.1659
     23 C          63.5892   90.4999   11.3353 C.3     1  UNL1        0.1789
     24 C          63.3824   90.5512   12.8201 C.2     1  UNL1        0.2462
     25 O          62.1267   89.9936   13.4221 O.2     1  UNL1       -0.2730
     26 N          64.4313   91.1600   13.7028 N.am    1  UNL1       -0.2753
     27 C          65.6869   91.7175   13.1007 C.3     1  UNL1        0.1108
     28 C          66.7358   92.3264   13.9834 C.3     1  UNL1        0.0939
     29 N          66.5290   92.3777   15.4682 N.3     1  UNL1       -0.2686
     30 C          67.5778   92.9866   16.3509 C.3     1  UNL1        0.0897
     31 C          65.2733   91.8202   16.0703 C.3     1  UNL1        0.0939
     32 C          64.2245   91.2113   15.1876 C.3     1  UNL1        0.1108
     33 C          64.4333   91.5392   10.6592 C.3     1  UNL1        0.1716
     34 O          64.0305   92.9831   10.7121 O.3     1  UNL1       -0.3434
     35 C          65.0731   94.0467   10.8909 C.3     1  UNL1        0.2078
     36 C          69.3333   92.0203    8.5192 C.3     1  UNL1        0.0950
     37 C          68.3530   92.9948    9.1019 C.ar    1  UNL1        0.2059
     38 N          68.5046   94.4868    9.1312 N.ar    1  UNL1       -0.2107
     39 C          67.2943   95.0625    9.8049 C.ar    1  UNL1        0.1372
     40 C          66.3948   93.9262   10.1920 C.ar    1  UNL1        0.1732
     41 O          67.0491   92.6483    9.7575 O.2     1  UNL1       -0.4401
@<TRIPOS>BOND
     1    36    37    1
     2    37    38   ar
     3    38    39   ar
     4    39    40   ar
     5    40    35    1
     6    35    34    1
     7    34    33    1
     8    23    33    1
     9    23     1    1
    10     1     2   am
    11     2     3    2
    12     2     5    1
    13     5     6   ar
    14     6     7   ar
    15     7     8   ar
    16     8     9   ar
    17     9    10   ar
    18    10    11    1
    19    11    12    1
    20    12    13   ar
    21    13    14   ar
    22    14    15   ar
    23    15    19    1
    24    19    20    1
    25    19    21    1
    26    19    22    1
    27    15    16   ar
    28    16    17   ar
    29    17    18    1
    30    23    24    1
    31    24    25    2
    32    24    26   am
    33    26    27    1
    34    27    28    1
    35    28    29    1
    36    29    30    1
    37    29    31    1
    38    31    32    1
    39    40    41   ar
    40    41    37   ar
    41    10     5   ar
    42    17    12   ar
    43    32    26    1
    44     1     4    1
@<TRIPOS>MOLECULE
*****
 41 44 0 0 0
SMALL
GASTEIGER

@<TRIPOS>ATOM
      1 N          63.3423   89.6018   12.2315 N.am    1  UNL1       -0.2927
      2 C          61.8739   89.3704   12.0305 C.2     1  UNL1        0.2508
      3 O          60.8977   89.7805   13.0929 O.2     1  UNL1       -0.2700
      4 H          63.9830   89.3326   11.5342 H       1  UNL1        0.1502
      5 C          61.3818   88.7289   10.7670 C.ar    1  UNL1        0.1068
      6 C          60.4038   89.4529    9.8899 C.ar    1  UNL1        0.0108
      7 C          59.9117   88.8114    8.6265 C.ar    1  UNL1        0.0210
      8 C          60.3977   87.4459    8.2401 C.ar    1  UNL1        0.1021
      9 N          61.3757   86.7219    9.1172 N.ar    1  UNL1       -0.2097
     10 C          61.8678   87.3634   10.3806 C.ar    1  UNL1        0.2340
     11 O          62.8459   86.6394   11.2577 O.3     1  UNL1       -0.4351
     12 C          62.8382   85.1404   11.3116 C.ar    1  UNL1        0.1576
     13 C          62.3930   84.4370   12.5594 C.ar    1  UNL1        0.0384
     14 C          62.3854   82.9380   12.6132 C.ar    1  UNL1        0.0070
     15 C          62.8230   82.1424   11.4192 C.ar    1  UNL1        0.0725
     16 C          63.2681   82.8458   10.1714 C.ar    1  UNL1        0.0183
     17 C          63.2757   84.3448   10.1176 C.ar    1  UNL1        0.0921
     18 CL         63.7209   85.0483    8.8697 Cl      1  UNL1       -0.0791
     19 C          62.8153   80.6434   11.4730 C.3     1  UNL1        0.4186
     20 F          62.8077   79.1444   11.5268 F       1  UNL1       -0.1659
     21 F          62.9683   80.5891    9.9818 F       1  UNL1       -0.1659
     22 F          62.6623   80.6977   12.9642 F       1  UNL1       -0.1659
     23 C          63.8344   90.2433   13.4950 C.3     1  UNL1        0.1789
     24 C          65.1484   90.9667   13.5063 C.2     1  UNL1        0.2462
     25 O          66.1259   90.7288   14.6190 O.2     1  UNL1       -0.2730
     26 N          65.4849   91.9279   12.4051 N.am    1  UNL1       -0.2753
     27 C          64.5073   92.1657   11.2925 C.3     1  UNL1        0.1108
     28 C          64.8438   93.1269   10.1912 C.3     1  UNL1        0.0939
     29 N          66.1578   93.8503   10.2025 N.3     1  UNL1       -0.2686
     30 C          66.4942   94.8115    9.1012 C.3     1  UNL1        0.0897
     31 C          67.1353   93.6125   11.3151 C.3     1  UNL1        0.0939
     32 C          66.7988   92.6513   12.4164 C.3     1  UNL1        0.1108
     33 C          63.0125   90.1614   14.7471 C.3     1  UNL1        0.1716
     34 O          63.6709   89.8435   16.0569 O.3     1  UNL1       -0.3434
     35 C          63.0097   88.9023   17.0198 C.3     1  UNL1        0.2078
     36 C          64.4433   84.1442   15.2350 C.3     1  UNL1        0.0950
     37 C          63.7016   85.2373   15.9458 C.ar    1  UNL1        0.2059
     38 N          62.4853   85.0624   16.8062 N.ar    1  UNL1       -0.2107
     39 C          62.0781   86.4141   17.3132 C.ar    1  UNL1        0.1372
     40 C          63.0427   87.4243   16.7662 C.ar    1  UNL1        0.1732
     41 O          64.0461   86.6970   15.9212 O.2     1  UNL1       -0.4401
@<TRIPOS>BOND
     1    36    37    1
     2    37    38   ar
     3    38    39   ar
     4    39    40   ar
     5    40    35    1
     6    35    34    1
     7    34    33    1
     8    23    33    1
     9    23     1    1
    10     1     2   am
    11     2     3    2
    12     2     5    1
    13     5     6   ar
    14     6     7   ar
    15     7     8   ar
    16     8     9   ar
    17     9    10   ar
    18    10    11    1
    19    11    12    1
    20    12    13   ar
    21    13    14   ar
    22    14    15   ar
    23    15    19    1
    24    19    20    1
    25    19    21    1
    26    19    22    1
    27    15    16   ar
    28    16    17   ar
    29    17    18    1
    30    23    24    1
    31    24    25    2
    32    24    26   am
    33    26    27    1
    34    27    28    1
    35    28    29    1
    36    29    30    1
    37    29    31    1
    38    31    32    1
    39    40    41   ar
    40    41    37   ar
    41    10     5   ar
    42    17    12   ar
    43    32    26    1
    44     1     4    1
