@<TRIPOS>MOLECULE
*****
 30 33 0 0 0
SMALL
GASTEIGER

@<TRIPOS>ATOM
      1 C          63.7791   90.6651   11.9658 C.ar    1  UNL1        0.1534
      2 C          62.8380   90.6665   10.7978 C.ar    1  UNL1        0.0351
      3 C          62.0161   89.4488   10.4955 C.ar    1  UNL1        0.0722
      4 CL         61.0749   89.4502    9.3274 Cl      1  UNL1       -0.0809
      5 C          62.1352   88.2296   11.3612 C.ar    1  UNL1        0.0577
      6 C          63.0762   88.2282   12.5292 C.ar    1  UNL1        0.0462
      7 C          63.8982   89.4459   12.8315 C.ar    1  UNL1        0.1602
      8 F          64.8393   89.4446   13.9996 F       1  UNL1       -0.2027
      9 O          65.1089   91.8905   10.8569 O.2     1  UNL1       -0.1498
     10 S          64.6011   91.8829   12.2682 S.O2    1  UNL1        0.0772
     11 O          64.0932   91.8753   13.6796 O.2     1  UNL1       -0.1498
     12 N          65.4230   93.1006   12.5706 N.pl3   1  UNL1       -0.1936
     13 H          65.2331   93.9496   12.1097 H       1  UNL1        0.1758
     14 C          66.5345   93.0249   13.5751 C.ar    1  UNL1        0.1786
     15 N          66.7446   93.9591   14.7297 N.ar    1  UNL1       -0.2214
     16 C          67.9708   93.5132   15.4696 C.ar    1  UNL1        0.1079
     17 C          68.5186   92.3033   14.7723 C.ar    1  UNL1        0.0588
     18 S          67.6308   92.0015   13.6014 S.2     1  UNL1       -0.0497
     19 N          61.3132   87.0118   11.0588 N.pl3   1  UNL1       -0.3319
     20 H          60.4935   87.0927   10.5194 H       1  UNL1        0.1468
     21 C          61.7400   85.6709   11.5781 C.3     1  UNL1        0.0883
     22 C          62.7801   84.8784   10.8433 C.3     1  UNL1        0.0327
     23 C          63.5723   84.3047    9.7060 C.3     1  UNL1        0.0031
     24 C          62.4273   85.2334    9.4293 C.3     1  UNL1        0.0031
     25 C          63.4941   84.2481   12.0022 C.3     1  UNL1        0.0736
     26 N          62.9495   82.9989   12.6291 N.3     1  UNL1       -0.2726
     27 C          62.3438   82.8908   13.9970 C.3     1  UNL1        0.0721
     28 C          61.9349   81.4636   14.2114 C.3     1  UNL1        0.0188
     29 C          62.2880   80.6897   12.9759 C.3     1  UNL1        0.0188
     30 C          62.9151   81.6386   11.9981 C.3     1  UNL1        0.0721
@<TRIPOS>BOND
     1     9    10    2
     2    10    11    2
     3    10    12    1
     4    12    14    1
     5    14    15   ar
     6    15    16   ar
     7    16    17   ar
     8    17    18   ar
     9    10     1    1
    10     1     2   ar
    11     2     3   ar
    12     3     4    1
    13     3     5   ar
    14     5    19    1
    15    19    21    1
    16    21    22    1
    17    22    25    1
    18    25    26    1
    19    26    27    1
    20    27    28    1
    21    28    29    1
    22    29    30    1
    23    22    23    1
    24    23    24    1
    25     5     6   ar
    26     6     7   ar
    27     7     8    1
    28    18    14   ar
    29     7     1   ar
    30    24    22    1
    31    30    26    1
    32    12    13    1
    33    19    20    1
@<TRIPOS>MOLECULE
*****
 30 33 0 0 0
SMALL
GASTEIGER

@<TRIPOS>ATOM
      1 C          65.7461   92.2524   12.5095 C.ar    1  UNL1        0.1534
      2 C          64.4403   91.7316   11.9866 C.ar    1  UNL1        0.0351
      3 C          63.6991   90.6700   12.7439 C.ar    1  UNL1        0.0722
      4 CL         62.3932   90.1490   12.2210 Cl      1  UNL1       -0.0809
      5 C          64.2637   90.1292   14.0241 C.ar    1  UNL1        0.0577
      6 C          65.5695   90.6501   14.5469 C.ar    1  UNL1        0.0462
      7 C          66.3108   91.7117   13.7897 C.ar    1  UNL1        0.1602
      8 F          67.6167   92.2326   14.3125 F       1  UNL1       -0.2027
      9 O          66.6336   92.3808   10.5870 O.2     1  UNL1       -0.1498
     10 S          66.4875   93.3141   11.7522 S.O2    1  UNL1        0.0772
     11 O          66.3413   94.2474   12.9173 O.2     1  UNL1       -0.1498
     12 N          67.2287   94.3757   10.9949 N.pl3   1  UNL1       -0.1936
     13 H          68.2038   94.4640   11.0982 H       1  UNL1        0.1758
     14 C          66.4843   95.3027   10.0802 C.ar    1  UNL1        0.1786
     15 N          65.2290   96.0522   10.4154 N.ar    1  UNL1       -0.2214
     16 C          64.8335   96.8557    9.2121 C.ar    1  UNL1        0.1079
     17 C          65.8444   96.6027    8.1331 C.ar    1  UNL1        0.0588
     18 S          66.8647   95.6429    8.6697 S.2     1  UNL1       -0.0497
     19 N          63.5224   89.0676   14.7814 N.pl3   1  UNL1       -0.3319
     20 H          62.5930   89.2240   15.0660 H       1  UNL1        0.1468
     21 C          64.1971   87.7676   15.1050 C.3     1  UNL1        0.0883
     22 C          63.6418   86.8817   16.1806 C.3     1  UNL1        0.0327
     23 C          62.8732   86.4505   17.3944 C.3     1  UNL1        0.0031
     24 C          62.8346   87.8834   16.9520 C.3     1  UNL1        0.0031
     25 C          64.2562   85.5725   15.7826 C.3     1  UNL1        0.0736
     26 N          63.5819   84.7081   14.7587 N.3     1  UNL1       -0.2726
     27 C          63.4839   84.9947   13.2897 C.3     1  UNL1        0.0721
     28 C          62.7287   83.8691   12.6472 C.3     1  UNL1        0.0188
     29 C          62.3600   82.8869   13.7192 C.3     1  UNL1        0.0188
     30 C          62.8873   83.4055   15.0242 C.3     1  UNL1        0.0721
@<TRIPOS>BOND
     1     9    10    2
     2    10    11    2
     3    10    12    1
     4    12    14    1
     5    14    15   ar
     6    15    16   ar
     7    16    17   ar
     8    17    18   ar
     9    10     1    1
    10     1     2   ar
    11     2     3   ar
    12     3     4    1
    13     3     5   ar
    14     5    19    1
    15    19    21    1
    16    21    22    1
    17    22    25    1
    18    25    26    1
    19    26    27    1
    20    27    28    1
    21    28    29    1
    22    29    30    1
    23    22    23    1
    24    23    24    1
    25     5     6   ar
    26     6     7   ar
    27     7     8    1
    28    18    14   ar
    29     7     1   ar
    30    24    22    1
    31    30    26    1
    32    12    13    1
    33    19    20    1
@<TRIPOS>MOLECULE
*****
 30 33 0 0 0
SMALL
GASTEIGER

@<TRIPOS>ATOM
      1 C          63.7530   90.9033   11.7458 C.ar    1  UNL1        0.1534
      2 C          62.7614   90.8362   10.6224 C.ar    1  UNL1        0.0351
      3 C          61.9061   89.6163   10.4489 C.ar    1  UNL1        0.0722
      4 CL         60.9144   89.5491    9.3254 Cl      1  UNL1       -0.0809
      5 C          62.0424   88.4634   11.3988 C.ar    1  UNL1        0.0577
      6 C          63.0340   88.5306   12.5223 C.ar    1  UNL1        0.0462
      7 C          63.8893   89.7505   12.6957 C.ar    1  UNL1        0.1602
      8 F          64.8810   89.8177   13.8192 F       1  UNL1       -0.2027
      9 O          64.8243   92.1828   10.4362 O.2     1  UNL1       -0.1498
     10 S          64.6083   92.1233   11.9193 S.O2    1  UNL1        0.0772
     11 O          64.3924   92.0638   13.4025 O.2     1  UNL1       -0.1498
     12 N          65.4637   93.3433   12.0928 N.pl3   1  UNL1       -0.1936
     13 H          65.3881   93.8851   12.9113 H       1  UNL1        0.1758
     14 C          66.4341   93.7377   11.0192 C.ar    1  UNL1        0.1786
     15 N          67.5791   92.9086   10.5176 N.ar    1  UNL1       -0.2214
     16 C          68.2826   93.6890    9.4471 C.ar    1  UNL1        0.1079
     17 C          67.5723   95.0005    9.2869 C.ar    1  UNL1        0.0588
     18 S          66.4299   95.0306   10.2586 S.2     1  UNL1       -0.0497
     19 N          61.1870   87.2435   11.2253 N.pl3   1  UNL1       -0.3319
     20 H          60.2860   87.3251   10.8370 H       1  UNL1        0.1468
     21 C          61.7044   85.8991   11.6433 C.3     1  UNL1        0.0883
     22 C          62.6187   85.1316   10.7349 C.3     1  UNL1        0.0327
     23 C          63.2358   84.6053    9.4731 C.3     1  UNL1        0.0031
     24 C          62.0805   85.5595    9.4018 C.3     1  UNL1        0.0031
     25 C          63.4743   84.4373   11.7526 C.3     1  UNL1        0.0736
     26 N          62.9302   83.2669   12.5170 N.3     1  UNL1       -0.2726
     27 C          62.5488   83.2616   13.9677 C.3     1  UNL1        0.0721
     28 C          62.0548   81.8878   14.3120 C.3     1  UNL1        0.0188
     29 C          62.1308   81.0440   13.0741 C.3     1  UNL1        0.0188
     30 C          62.6718   81.8964   11.9648 C.3     1  UNL1        0.0721
@<TRIPOS>BOND
     1     9    10    2
     2    10    11    2
     3    10    12    1
     4    12    14    1
     5    14    15   ar
     6    15    16   ar
     7    16    17   ar
     8    17    18   ar
     9    10     1    1
    10     1     2   ar
    11     2     3   ar
    12     3     4    1
    13     3     5   ar
    14     5    19    1
    15    19    21    1
    16    21    22    1
    17    22    25    1
    18    25    26    1
    19    26    27    1
    20    27    28    1
    21    28    29    1
    22    29    30    1
    23    22    23    1
    24    23    24    1
    25     5     6   ar
    26     6     7   ar
    27     7     8    1
    28    18    14   ar
    29     7     1   ar
    30    24    22    1
    31    30    26    1
    32    12    13    1
    33    19    20    1
@<TRIPOS>MOLECULE
*****
 30 33 0 0 0
SMALL
GASTEIGER

@<TRIPOS>ATOM
      1 C          63.8602   86.5123   14.0221 C.ar    1  UNL1        0.1534
      2 C          64.2840   87.6331   14.9244 C.ar    1  UNL1        0.0351
      3 C          64.1369   89.0559   14.4728 C.ar    1  UNL1        0.0722
      4 CL         64.5607   90.1768   15.3751 Cl      1  UNL1       -0.0809
      5 C          63.5659   89.3579   13.1190 C.ar    1  UNL1        0.0577
      6 C          63.1421   88.2371   12.2167 C.ar    1  UNL1        0.0462
      7 C          63.2892   86.8143   12.6683 C.ar    1  UNL1        0.1602
      8 F          62.8654   85.6934   11.7660 F       1  UNL1       -0.2027
      9 O          62.5200   84.9885   14.6400 O.2     1  UNL1       -0.1498
     10 S          64.0073   85.0894   14.4736 S.O2    1  UNL1        0.0772
     11 O          65.4946   85.1903   14.3073 O.2     1  UNL1       -0.1498
     12 N          64.1543   83.6666   14.9252 N.pl3   1  UNL1       -0.1936
     13 H          64.6641   83.4594   15.7415 H       1  UNL1        0.1758
     14 C          63.5246   82.5594   14.1329 C.ar    1  UNL1        0.1786
     15 N          62.4534   81.6276   14.6171 N.ar    1  UNL1       -0.2214
     16 C          62.1223   80.6820   13.5008 C.ar    1  UNL1        0.1079
     17 C          62.9888   81.0293   12.3266 C.ar    1  UNL1        0.0588
     18 S          63.8555   82.1897   12.7173 S.2     1  UNL1       -0.0497
     19 N          63.4188   90.7808   12.6675 N.pl3   1  UNL1       -0.3319
     20 H          62.6005   91.0671   12.2010 H       1  UNL1        0.1468
     21 C          64.5185   91.7674   12.9267 C.3     1  UNL1        0.0883
     22 C          65.1495   92.5049   11.7830 C.3     1  UNL1        0.0327
     23 C          65.4606   92.9257   10.3773 C.3     1  UNL1        0.0031
     24 C          64.4472   91.8492   10.6312 C.3     1  UNL1        0.0031
     25 C          66.0710   93.4166   12.5378 C.3     1  UNL1        0.0736
     26 N          66.7636   92.9264   13.7747 N.3     1  UNL1       -0.2726
     27 C          67.8309   91.8738   13.8291 C.3     1  UNL1        0.0721
     28 C          68.2374   91.6996   15.2625 C.3     1  UNL1        0.0188
     29 C          67.4214   92.6445   16.0939 C.3     1  UNL1        0.0188
     30 C          66.5106   93.4027   15.1744 C.3     1  UNL1        0.0721
@<TRIPOS>BOND
     1     9    10    2
     2    10    11    2
     3    10    12    1
     4    12    14    1
     5    14    15   ar
     6    15    16   ar
     7    16    17   ar
     8    17    18   ar
     9    10     1    1
    10     1     2   ar
    11     2     3   ar
    12     3     4    1
    13     3     5   ar
    14     5    19    1
    15    19    21    1
    16    21    22    1
    17    22    25    1
    18    25    26    1
    19    26    27    1
    20    27    28    1
    21    28    29    1
    22    29    30    1
    23    22    23    1
    24    23    24    1
    25     5     6   ar
    26     6     7   ar
    27     7     8    1
    28    18    14   ar
    29     7     1   ar
    30    24    22    1
    31    30    26    1
    32    12    13    1
    33    19    20    1
@<TRIPOS>MOLECULE
*****
 30 33 0 0 0
SMALL
GASTEIGER

@<TRIPOS>ATOM
      1 C          64.7135   91.5643   11.9742 C.ar    1  UNL1        0.1534
      2 C          64.7532   90.5285   13.0583 C.ar    1  UNL1        0.0351
      3 C          63.8109   89.3622   13.0161 C.ar    1  UNL1        0.0722
      4 CL         63.8506   88.3263   14.1003 Cl      1  UNL1       -0.0809
      5 C          62.8290   89.2317   11.8898 C.ar    1  UNL1        0.0577
      6 C          62.7893   90.2675   10.8056 C.ar    1  UNL1        0.0462
      7 C          63.7315   91.4338   10.8478 C.ar    1  UNL1        0.1602
      8 F          63.6919   92.4697    9.7636 F       1  UNL1       -0.2027
      9 O          66.1224   92.4039   10.6288 O.2     1  UNL1       -0.1498
     10 S          65.6558   92.7307   12.0164 S.O2    1  UNL1        0.0772
     11 O          65.1892   93.0575   13.4040 O.2     1  UNL1       -0.1498
     12 N          66.5981   93.8970   12.0585 N.pl3   1  UNL1       -0.1936
     13 H          67.1742   94.0362   12.8446 H       1  UNL1        0.1758
     14 C          66.6626   94.8512   10.9029 C.ar    1  UNL1        0.1786
     15 N          67.7362   94.8972    9.8563 N.ar    1  UNL1       -0.2214
     16 C          67.4020   96.0013    8.8976 C.ar    1  UNL1        0.1079
     17 C          66.1218   96.6378    9.3516 C.ar    1  UNL1        0.0588
     18 S          65.6648   95.9269   10.5910 S.2     1  UNL1       -0.0497
     19 N          61.8867   88.0653   11.8476 N.pl3   1  UNL1       -0.3319
     20 H          61.9691   87.3417   12.5100 H       1  UNL1        0.1468
     21 C          60.8188   88.0015   10.7961 C.3     1  UNL1        0.0883
     22 C          60.9443   87.0332    9.6574 C.3     1  UNL1        0.0327
     23 C          60.5689   86.1986    8.4689 C.3     1  UNL1        0.0031
     24 C          59.5454   87.0821    9.1185 C.3     1  UNL1        0.0031
     25 C          62.3869   86.6480    9.8010 C.3     1  UNL1        0.0736
     26 N          62.7524   85.2704   10.2686 N.3     1  UNL1       -0.2726
     27 C          62.4037   84.6692   11.5979 C.3     1  UNL1        0.0721
     28 C          62.9665   83.2793   11.6399 C.3     1  UNL1        0.0188
     29 C          63.6629   83.0216   10.3365 C.3     1  UNL1        0.0188
     30 C          63.5305   84.2522    9.4892 C.3     1  UNL1        0.0721
@<TRIPOS>BOND
     1     9    10    2
     2    10    11    2
     3    10    12    1
     4    12    14    1
     5    14    15   ar
     6    15    16   ar
     7    16    17   ar
     8    17    18   ar
     9    10     1    1
    10     1     2   ar
    11     2     3   ar
    12     3     4    1
    13     3     5   ar
    14     5    19    1
    15    19    21    1
    16    21    22    1
    17    22    25    1
    18    25    26    1
    19    26    27    1
    20    27    28    1
    21    28    29    1
    22    29    30    1
    23    22    23    1
    24    23    24    1
    25     5     6   ar
    26     6     7   ar
    27     7     8    1
    28    18    14   ar
    29     7     1   ar
    30    24    22    1
    31    30    26    1
    32    12    13    1
    33    19    20    1
@<TRIPOS>MOLECULE
*****
 30 33 0 0 0
SMALL
GASTEIGER

@<TRIPOS>ATOM
      1 C          62.5459   89.6121   11.6845 C.ar    1  UNL1        0.1534
      2 C          62.9550   88.6704   12.7780 C.ar    1  UNL1        0.0351
      3 C          64.0322   89.0656   13.7441 C.ar    1  UNL1        0.0722
      4 CL         64.4413   88.1239   14.8377 Cl      1  UNL1       -0.0809
      5 C          64.7004   90.4025   13.6166 C.ar    1  UNL1        0.0577
      6 C          64.2914   91.3441   12.5231 C.ar    1  UNL1        0.0462
      7 C          63.2141   90.9490   11.5570 C.ar    1  UNL1        0.1602
      8 F          62.8051   91.8907   10.4634 F       1  UNL1       -0.2027
      9 O          62.3722   89.5592    9.5710 O.2     1  UNL1       -0.1498
     10 S          61.4686   89.2169   10.7183 S.O2    1  UNL1        0.0772
     11 O          60.5651   88.8747   11.8657 O.2     1  UNL1       -0.1498
     12 N          60.3914   88.8218    9.7522 N.pl3   1  UNL1       -0.1936
     13 H          59.5870   89.3811    9.6561 H       1  UNL1        0.1758
     14 C          60.5399   87.5744    8.9324 C.ar    1  UNL1        0.1786
     15 N          61.7409   86.6762    8.9031 N.ar    1  UNL1       -0.2214
     16 C          61.4566   85.5529    7.9506 C.ar    1  UNL1        0.1079
     17 C          60.0798   85.7568    7.3911 C.ar    1  UNL1        0.0588
     18 S          59.5132   87.0062    7.9980 S.2     1  UNL1       -0.0497
     19 N          65.7777   90.7976   14.5827 N.pl3   1  UNL1       -0.3319
     20 H          66.4868   90.1567   14.8185 H       1  UNL1        0.1468
     21 C          65.7746   92.1693   15.1897 C.3     1  UNL1        0.0883
     22 C          67.0251   92.9977   15.1777 C.3     1  UNL1        0.0327
     23 C          68.3962   93.4855   15.5411 C.3     1  UNL1        0.0031
     24 C          67.8066   92.3050   16.2544 C.3     1  UNL1        0.0031
     25 C          66.6778   93.9779   14.0968 C.3     1  UNL1        0.0736
     26 N          66.7992   93.5795   12.6557 N.3     1  UNL1       -0.2726
     27 C          66.1527   94.2710   11.4923 C.3     1  UNL1        0.0721
     28 C          66.5425   93.5385   10.2427 C.3     1  UNL1        0.0188
     29 C          67.4300   92.3942   10.6338 C.3     1  UNL1        0.0188
     30 C          67.5886   92.4196   12.1252 C.3     1  UNL1        0.0721
@<TRIPOS>BOND
     1     9    10    2
     2    10    11    2
     3    10    12    1
     4    12    14    1
     5    14    15   ar
     6    15    16   ar
     7    16    17   ar
     8    17    18   ar
     9    10     1    1
    10     1     2   ar
    11     2     3   ar
    12     3     4    1
    13     3     5   ar
    14     5    19    1
    15    19    21    1
    16    21    22    1
    17    22    25    1
    18    25    26    1
    19    26    27    1
    20    27    28    1
    21    28    29    1
    22    29    30    1
    23    22    23    1
    24    23    24    1
    25     5     6   ar
    26     6     7   ar
    27     7     8    1
    28    18    14   ar
    29     7     1   ar
    30    24    22    1
    31    30    26    1
    32    12    13    1
    33    19    20    1
@<TRIPOS>MOLECULE
*****
 30 33 0 0 0
SMALL
GASTEIGER

@<TRIPOS>ATOM
      1 C          62.7107   86.9433   11.8989 C.ar    1  UNL1        0.1534
      2 C          62.1356   88.0347   11.0457 C.ar    1  UNL1        0.0351
      3 C          62.4269   89.4705   11.3674 C.ar    1  UNL1        0.0722
      4 CL         61.8518   90.5620   10.5141 Cl      1  UNL1       -0.0809
      5 C          63.2934   89.8149   12.5424 C.ar    1  UNL1        0.0577
      6 C          63.8685   88.7236   13.3957 C.ar    1  UNL1        0.0462
      7 C          63.5771   87.2878   13.0740 C.ar    1  UNL1        0.1602
      8 F          64.1523   86.1963   13.9272 F       1  UNL1       -0.2027
      9 O          62.8042   85.7497   10.1478 O.2     1  UNL1       -0.1498
     10 S          62.4194   85.5074   11.5772 S.O2    1  UNL1        0.0772
     11 O          62.0346   85.2652   13.0066 O.2     1  UNL1       -0.1498
     12 N          62.1281   84.0716   11.2555 N.pl3   1  UNL1       -0.1936
     13 H          61.5133   83.8469   10.5201 H       1  UNL1        0.1758
     14 C          62.7734   82.9782   12.0542 C.ar    1  UNL1        0.1786
     15 N          62.0580   81.8868   12.7939 N.ar    1  UNL1       -0.2214
     16 C          63.0899   81.0183   13.4504 C.ar    1  UNL1        0.1079
     17 C          64.4431   81.5729   13.1163 C.ar    1  UNL1        0.0588
     18 S          64.2474   82.7842   12.2535 S.2     1  UNL1       -0.0497
     19 N          63.5847   91.2508   12.8642 N.pl3   1  UNL1       -0.3319
     20 H          63.0259   91.7324   13.5161 H       1  UNL1        0.1468
     21 C          64.7275   91.9529   12.1926 C.3     1  UNL1        0.0883
     22 C          65.8092   92.5843   13.0181 C.3     1  UNL1        0.0327
     23 C          66.7582   92.8201   14.1555 C.3     1  UNL1        0.0031
     24 C          65.8027   91.6647   14.2030 C.3     1  UNL1        0.0031
     25 C          66.1912   93.7231   12.1196 C.3     1  UNL1        0.0736
     26 N          67.0226   93.4678   10.8975 N.3     1  UNL1       -0.2726
     27 C          67.8466   92.2429   10.6317 C.3     1  UNL1        0.0721
     28 C          68.5092   92.4107    9.2965 C.3     1  UNL1        0.0188
     29 C          68.0947   93.7393    8.7370 C.3     1  UNL1        0.0188
     30 C          67.1759   94.3926    9.7265 C.3     1  UNL1        0.0721
@<TRIPOS>BOND
     1     9    10    2
     2    10    11    2
     3    10    12    1
     4    12    14    1
     5    14    15   ar
     6    15    16   ar
     7    16    17   ar
     8    17    18   ar
     9    10     1    1
    10     1     2   ar
    11     2     3   ar
    12     3     4    1
    13     3     5   ar
    14     5    19    1
    15    19    21    1
    16    21    22    1
    17    22    25    1
    18    25    26    1
    19    26    27    1
    20    27    28    1
    21    28    29    1
    22    29    30    1
    23    22    23    1
    24    23    24    1
    25     5     6   ar
    26     6     7   ar
    27     7     8    1
    28    18    14   ar
    29     7     1   ar
    30    24    22    1
    31    30    26    1
    32    12    13    1
    33    19    20    1
@<TRIPOS>MOLECULE
*****
 30 33 0 0 0
SMALL
GASTEIGER

@<TRIPOS>ATOM
      1 C          63.6890   86.3649   13.6913 C.ar    1  UNL1        0.1534
      2 C          63.1713   87.0473   12.4600 C.ar    1  UNL1        0.0351
      3 C          63.2340   88.5418   12.3483 C.ar    1  UNL1        0.0722
      4 CL         62.7163   89.2243   11.1169 Cl      1  UNL1       -0.0809
      5 C          63.8145   89.3539   13.4680 C.ar    1  UNL1        0.0577
      6 C          64.3322   88.6714   14.6993 C.ar    1  UNL1        0.0462
      7 C          64.2694   87.1770   14.8110 C.ar    1  UNL1        0.1602
      8 F          64.7872   86.4944   16.0424 F       1  UNL1       -0.2027
      9 O          65.1224   84.8143   13.8933 O.2     1  UNL1       -0.1498
     10 S          63.6262   84.8703   13.8031 S.O2    1  UNL1        0.0772
     11 O          62.1300   84.9264   13.7129 O.2     1  UNL1       -0.1498
     12 N          63.5635   83.3758   13.9148 N.pl3   1  UNL1       -0.1936
     13 H          63.5934   82.9467   14.8004 H       1  UNL1        0.1758
     14 C          63.4553   82.5351   12.6772 C.ar    1  UNL1        0.1786
     15 N          63.9810   82.8937   11.3189 N.ar    1  UNL1       -0.2214
     16 C          63.6530   81.7683   10.3830 C.ar    1  UNL1        0.1079
     17 C          62.9245   80.7142   11.1629 C.ar    1  UNL1        0.0588
     18 S          62.8023   81.1881   12.5809 S.2     1  UNL1       -0.0497
     19 N          63.8773   90.8484   13.3562 N.pl3   1  UNL1       -0.3319
     20 H          63.2321   91.4063   13.8480 H       1  UNL1        0.1468
     21 C          64.9229   91.4929   12.4953 C.3     1  UNL1        0.0883
     22 C          65.8980   92.4608   13.0974 C.3     1  UNL1        0.0327
     23 C          66.8841   93.0530   14.0603 C.3     1  UNL1        0.0031
     24 C          66.2681   91.7152   14.3453 C.3     1  UNL1        0.0031
     25 C          65.8665   93.5424   12.0586 C.3     1  UNL1        0.0736
     26 N          66.8207   93.4994   10.9020 N.3     1  UNL1       -0.2726
     27 C          67.6821   92.3349   10.5126 C.3     1  UNL1        0.0721
     28 C          68.4748   92.7292    9.3016 C.3     1  UNL1        0.0188
     29 C          68.1031   94.1375    8.9427 C.3     1  UNL1        0.0188
     30 C          67.0809   94.6134    9.9319 C.3     1  UNL1        0.0721
@<TRIPOS>BOND
     1     9    10    2
     2    10    11    2
     3    10    12    1
     4    12    14    1
     5    14    15   ar
     6    15    16   ar
     7    16    17   ar
     8    17    18   ar
     9    10     1    1
    10     1     2   ar
    11     2     3   ar
    12     3     4    1
    13     3     5   ar
    14     5    19    1
    15    19    21    1
    16    21    22    1
    17    22    25    1
    18    25    26    1
    19    26    27    1
    20    27    28    1
    21    28    29    1
    22    29    30    1
    23    22    23    1
    24    23    24    1
    25     5     6   ar
    26     6     7   ar
    27     7     8    1
    28    18    14   ar
    29     7     1   ar
    30    24    22    1
    31    30    26    1
    32    12    13    1
    33    19    20    1
@<TRIPOS>MOLECULE
*****
 30 33 0 0 0
SMALL
GASTEIGER

@<TRIPOS>ATOM
      1 C          60.3003   88.1422    8.8473 C.ar    1  UNL1        0.1534
      2 C          60.5623   89.0869    9.9826 C.ar    1  UNL1        0.0351
      3 C          61.4372   88.6625   11.1247 C.ar    1  UNL1        0.0722
      4 CL         61.6992   89.6072   12.2600 Cl      1  UNL1       -0.0809
      5 C          62.0501   87.2935   11.1315 C.ar    1  UNL1        0.0577
      6 C          61.7882   86.3488    9.9962 C.ar    1  UNL1        0.0462
      7 C          60.9133   86.7732    8.8541 C.ar    1  UNL1        0.1602
      8 F          60.6513   85.8285    7.7187 F       1  UNL1       -0.2027
      9 O          60.1483   89.8791    7.6390 O.2     1  UNL1       -0.1498
     10 S          59.4254   88.5665    7.7051 S.O2    1  UNL1        0.0772
     11 O          58.7025   87.2540    7.7712 O.2     1  UNL1       -0.1498
     12 N          58.5505   88.9909    6.5630 N.pl3   1  UNL1       -0.1936
     13 H          57.7282   88.4891    6.3599 H       1  UNL1        0.1758
     14 C          58.9285   90.1800    5.7302 C.ar    1  UNL1        0.1786
     15 N          60.3067   90.5099    5.2387 N.ar    1  UNL1       -0.2214
     16 C          60.2245   91.7816    4.4475 C.ar    1  UNL1        0.1079
     17 C          58.7955   92.2377    4.4501 C.ar    1  UNL1        0.0588
     18 S          57.9944   91.2477    5.2429 S.2     1  UNL1       -0.0497
     19 N          62.9250   86.8691   12.2736 N.pl3   1  UNL1       -0.3319
     20 H          63.3830   87.5471   12.8212 H       1  UNL1        0.1468
     21 C          63.1021   85.4118   12.5815 C.3     1  UNL1        0.0883
     22 C          64.0738   84.9816   13.6403 C.3     1  UNL1        0.0327
     23 C          64.9425   85.0352   14.8620 C.3     1  UNL1        0.0031
     24 C          64.1145   86.2256   14.4774 C.3     1  UNL1        0.0031
     25 C          64.3705   83.5882   13.1707 C.3     1  UNL1        0.0736
     26 N          63.3727   82.4916   13.3988 N.3     1  UNL1       -0.2726
     27 C          62.2491   82.5146   14.3922 C.3     1  UNL1        0.0721
     28 C          61.5054   81.2166   14.2809 C.3     1  UNL1        0.0188
     29 C          62.1695   80.3915   13.2187 C.3     1  UNL1        0.0188
     30 C          63.3235   81.1795   12.6736 C.3     1  UNL1        0.0721
@<TRIPOS>BOND
     1     9    10    2
     2    10    11    2
     3    10    12    1
     4    12    14    1
     5    14    15   ar
     6    15    16   ar
     7    16    17   ar
     8    17    18   ar
     9    10     1    1
    10     1     2   ar
    11     2     3   ar
    12     3     4    1
    13     3     5   ar
    14     5    19    1
    15    19    21    1
    16    21    22    1
    17    22    25    1
    18    25    26    1
    19    26    27    1
    20    27    28    1
    21    28    29    1
    22    29    30    1
    23    22    23    1
    24    23    24    1
    25     5     6   ar
    26     6     7   ar
    27     7     8    1
    28    18    14   ar
    29     7     1   ar
    30    24    22    1
    31    30    26    1
    32    12    13    1
    33    19    20    1
