@<TRIPOS>MOLECULE
*****
 22 25 0 0 0
SMALL
GASTEIGER

@<TRIPOS>ATOM
      1 C          63.3350   85.4258   12.9001 C.ar    1  UNL1        0.1450
      2 N          63.9906   86.0530   14.0946 N.ar    1  UNL1       -0.2267
      3 C          63.9693   87.5411   13.9071 C.ar    1  UNL1        0.1010
      4 C          64.4725   88.6675   14.7602 C.ar    1  UNL1        0.0526
      5 C          64.3068   90.0864   14.3030 C.ar    1  UNL1        0.1690
      6 F          64.8100   91.2130   15.1562 F       1  UNL1       -0.2017
      7 C          63.6379   90.3789   12.9926 C.ar    1  UNL1        0.1689
      8 F          63.4722   91.7980   12.5355 F       1  UNL1       -0.2017
      9 C          63.1347   89.2525   12.1395 C.ar    1  UNL1        0.0507
     10 C          63.3004   87.8336   12.5967 C.ar    1  UNL1        0.0812
     11 N          62.9084   86.5263   11.9744 N.ar    1  UNL1       -0.3132
     12 C          62.0465   83.7362   15.0180 C.3     1  UNL1        0.0336
     13 C          62.4959   83.1114   13.7304 C.ar    1  UNL1        0.0116
     14 C          62.3010   81.6417   13.5018 C.ar    1  UNL1        0.1553
     15 F          61.6568   80.7969   14.5608 F       1  UNL1       -0.2029
     16 C          62.7503   81.0169   12.2143 C.ar    1  UNL1        0.1281
     17 N          63.3945   81.8617   11.1555 N.ar    1  UNL1       -0.2399
     18 C          63.5894   83.3313   11.3841 C.ar    1  UNL1        0.1017
     19 C          63.1401   83.9562   12.6715 C.ar    1  UNL1        0.0515
     20 C          62.2120   86.3503   10.6576 C.3     1  UNL1        0.0870
     21 C          62.2674   86.0538    9.1881 C.3     1  UNL1        0.0245
     22 C          60.9506   86.3422    9.8460 C.3     1  UNL1        0.0245
@<TRIPOS>BOND
     1    12    13    1
     2    13    14   ar
     3    14    15    1
     4    14    16   ar
     5    16    17   ar
     6    17    18   ar
     7    18    19   ar
     8    19     1    1
     9     1     2   ar
    10     2     3   ar
    11     3     4   ar
    12     4     5   ar
    13     5     6    1
    14     5     7   ar
    15     7     8    1
    16     7     9   ar
    17     9    10   ar
    18    10    11   ar
    19    11    20    1
    20    20    21    1
    21    21    22    1
    22    19    13   ar
    23    11     1   ar
    24    22    20    1
    25    10     3   ar
@<TRIPOS>MOLECULE
*****
 22 25 0 0 0
SMALL
GASTEIGER

@<TRIPOS>ATOM
      1 C          62.8252   85.3799   12.1068 C.ar    1  UNL1        0.1450
      2 N          62.2529   86.1748   10.9707 N.ar    1  UNL1       -0.2267
      3 C          62.5313   87.6252   11.2332 C.ar    1  UNL1        0.1010
      4 C          62.2032   88.8666   10.4578 C.ar    1  UNL1        0.0526
      5 C          62.6195   90.2094   10.9807 C.ar    1  UNL1        0.1690
      6 F          62.2914   91.4509   10.2052 F       1  UNL1       -0.2017
      7 C          63.3638   90.3109   12.2790 C.ar    1  UNL1        0.1689
      8 F          63.7801   91.6538   12.8019 F       1  UNL1       -0.2017
      9 C          63.6919   89.0696   13.0545 C.ar    1  UNL1        0.0507
     10 C          63.2757   87.7267   12.5316 C.ar    1  UNL1        0.0812
     11 N          63.4573   86.3391   13.0714 N.ar    1  UNL1       -0.3132
     12 C          63.6504   83.6204    9.8214 C.3     1  UNL1        0.0336
     13 C          63.1868   83.0081   11.1099 C.ar    1  UNL1        0.0116
     14 C          63.1359   81.5161   11.2558 C.ar    1  UNL1        0.1553
     15 F          63.5486   80.6364   10.1130 F       1  UNL1       -0.2029
     16 C          62.6725   80.9038   12.5442 C.ar    1  UNL1        0.1281
     17 N          62.2599   81.7836   13.6869 N.ar    1  UNL1       -0.2399
     18 C          62.3108   83.2756   13.5411 C.ar    1  UNL1        0.1017
     19 C          62.7743   83.8879   12.2526 C.ar    1  UNL1        0.0515
     20 C          64.1495   85.9745   14.3513 C.3     1  UNL1        0.0870
     21 C          65.3547   85.4466   15.0716 C.3     1  UNL1        0.0245
     22 C          64.1433   85.8710   15.8477 C.3     1  UNL1        0.0245
@<TRIPOS>BOND
     1    12    13    1
     2    13    14   ar
     3    14    15    1
     4    14    16   ar
     5    16    17   ar
     6    17    18   ar
     7    18    19   ar
     8    19     1    1
     9     1     2   ar
    10     2     3   ar
    11     3     4   ar
    12     4     5   ar
    13     5     6    1
    14     5     7   ar
    15     7     8    1
    16     7     9   ar
    17     9    10   ar
    18    10    11   ar
    19    11    20    1
    20    20    21    1
    21    21    22    1
    22    19    13   ar
    23    11     1   ar
    24    22    20    1
    25    10     3   ar
@<TRIPOS>MOLECULE
*****
 22 25 0 0 0
SMALL
GASTEIGER

@<TRIPOS>ATOM
      1 C          63.3535   90.3021   12.5632 C.ar    1  UNL1        0.1450
      2 N          62.5755   90.8953   11.4263 N.ar    1  UNL1       -0.2267
      3 C          61.9145   89.7735   10.6816 C.ar    1  UNL1        0.1010
      4 C          61.0239   89.7573    9.4747 C.ar    1  UNL1        0.0526
      5 C          60.5028   88.4545    8.9446 C.ar    1  UNL1        0.1690
      6 F          59.6122   88.4383    7.7377 F       1  UNL1       -0.2017
      7 C          60.8723   87.1679    9.6213 C.ar    1  UNL1        0.1689
      8 F          60.3512   85.8650    9.0911 F       1  UNL1       -0.2017
      9 C          61.7629   87.1840   10.8282 C.ar    1  UNL1        0.0507
     10 C          62.2840   88.4868   11.3583 C.ar    1  UNL1        0.0812
     11 N          63.1733   88.8135   12.5212 N.ar    1  UNL1       -0.3132
     12 C          65.5909   92.0754   11.6418 C.3     1  UNL1        0.0336
     13 C          65.2872   91.9503   13.1054 C.ar    1  UNL1        0.0116
     14 C          66.1023   92.7118   14.1083 C.ar    1  UNL1        0.1553
     15 F          67.2210   93.5985   13.6475 F       1  UNL1       -0.2029
     16 C          65.7987   92.5866   15.5719 C.ar    1  UNL1        0.1281
     17 N          64.6800   91.7000   16.0326 N.ar    1  UNL1       -0.2399
     18 C          63.8649   90.9384   15.0297 C.ar    1  UNL1        0.1017
     19 C          64.1685   91.0636   13.5661 C.ar    1  UNL1        0.0515
     20 C          63.7766   87.8251   13.4747 C.3     1  UNL1        0.0870
     21 C          64.0804   86.4063   13.8554 C.3     1  UNL1        0.0245
     22 C          64.5176   87.5318   14.7454 C.3     1  UNL1        0.0245
@<TRIPOS>BOND
     1    12    13    1
     2    13    14   ar
     3    14    15    1
     4    14    16   ar
     5    16    17   ar
     6    17    18   ar
     7    18    19   ar
     8    19     1    1
     9     1     2   ar
    10     2     3   ar
    11     3     4   ar
    12     4     5   ar
    13     5     6    1
    14     5     7   ar
    15     7     8    1
    16     7     9   ar
    17     9    10   ar
    18    10    11   ar
    19    11    20    1
    20    20    21    1
    21    21    22    1
    22    19    13   ar
    23    11     1   ar
    24    22    20    1
    25    10     3   ar
@<TRIPOS>MOLECULE
*****
 22 25 0 0 0
SMALL
GASTEIGER

@<TRIPOS>ATOM
      1 C          62.7842   86.2570   12.1187 C.ar    1  UNL1        0.1450
      2 N          62.9143   85.5671   13.4443 N.ar    1  UNL1       -0.2267
      3 C          62.9047   84.0872   13.1997 C.ar    1  UNL1        0.1010
      4 C          63.0022   82.9154   14.1309 C.ar    1  UNL1        0.0526
      5 C          62.9638   81.5187   13.5853 C.ar    1  UNL1        0.1690
      6 F          63.0613   80.3467   14.5165 F       1  UNL1       -0.2017
      7 C          62.8278   81.2939   12.1085 C.ar    1  UNL1        0.1689
      8 F          62.7894   79.8971   11.5629 F       1  UNL1       -0.2017
      9 C          62.7303   82.4657   11.1773 C.ar    1  UNL1        0.0507
     10 C          62.7688   83.8624   11.7229 C.ar    1  UNL1        0.0812
     11 N          62.6943   85.2034   11.0549 N.ar    1  UNL1       -0.3132
     12 C          64.2374   88.0896   13.9975 C.3     1  UNL1        0.0336
     13 C          63.4767   88.6563   12.8355 C.ar    1  UNL1        0.0116
     14 C          63.4426   90.1393   12.6129 C.ar    1  UNL1        0.1553
     15 F          64.1692   91.0556   13.5523 F       1  UNL1       -0.2029
     16 C          62.6819   90.7060   11.4509 C.ar    1  UNL1        0.1281
     17 N          61.9554   89.7896   10.5115 N.ar    1  UNL1       -0.2399
     18 C          61.9895   88.3066   10.7341 C.ar    1  UNL1        0.1017
     19 C          62.7501   87.7400   11.8961 C.ar    1  UNL1        0.0515
     20 C          62.5545   85.4478    9.5815 C.3     1  UNL1        0.0870
     21 C          63.1266   85.3948    8.1959 C.3     1  UNL1        0.0245
     22 C          61.7404   85.9242    8.4152 C.3     1  UNL1        0.0245
@<TRIPOS>BOND
     1    12    13    1
     2    13    14   ar
     3    14    15    1
     4    14    16   ar
     5    16    17   ar
     6    17    18   ar
     7    18    19   ar
     8    19     1    1
     9     1     2   ar
    10     2     3   ar
    11     3     4   ar
    12     4     5   ar
    13     5     6    1
    14     5     7   ar
    15     7     8    1
    16     7     9   ar
    17     9    10   ar
    18    10    11   ar
    19    11    20    1
    20    20    21    1
    21    21    22    1
    22    19    13   ar
    23    11     1   ar
    24    22    20    1
    25    10     3   ar
@<TRIPOS>MOLECULE
*****
 22 25 0 0 0
SMALL
GASTEIGER

@<TRIPOS>ATOM
      1 C          64.4508   89.3580   14.2761 C.ar    1  UNL1        0.1450
      2 N          65.3475   90.4640   14.7482 N.ar    1  UNL1       -0.2267
      3 C          65.4125   91.5016   13.6669 C.ar    1  UNL1        0.1010
      4 C          66.1409   92.8095   13.5735 C.ar    1  UNL1        0.0526
      5 C          66.0128   93.6527   12.3396 C.ar    1  UNL1        0.1690
      6 F          66.7412   94.9607   12.2461 F       1  UNL1       -0.2017
      7 C          65.1563   93.1881   11.1992 C.ar    1  UNL1        0.1689
      8 F          65.0283   94.0314    9.9652 F       1  UNL1       -0.2017
      9 C          64.4279   91.8802   11.2926 C.ar    1  UNL1        0.0507
     10 C          64.5560   91.0369   12.5265 C.ar    1  UNL1        0.0812
     11 N          63.9617   89.7121   12.9030 N.ar    1  UNL1       -0.3132
     12 C          63.0132   89.5672   16.9009 C.3     1  UNL1        0.0336
     13 C          63.3854   88.2206   16.3548 C.ar    1  UNL1        0.0116
     14 C          63.0388   86.9786   17.1212 C.ar    1  UNL1        0.1553
     15 F          62.3200   87.0833   18.4336 F       1  UNL1       -0.2029
     16 C          63.4110   85.6320   16.5752 C.ar    1  UNL1        0.1281
     17 N          64.1298   85.5275   15.2628 N.ar    1  UNL1       -0.2399
     18 C          64.4764   86.7694   14.4964 C.ar    1  UNL1        0.1017
     19 C          64.1042   88.1160   15.0424 C.ar    1  UNL1        0.0515
     20 C          63.0400   88.8864   12.0552 C.3     1  UNL1        0.0870
     21 C          61.9280   88.7974   11.0524 C.3     1  UNL1        0.0245
     22 C          62.5557   87.5454   11.5895 C.3     1  UNL1        0.0245
@<TRIPOS>BOND
     1    12    13    1
     2    13    14   ar
     3    14    15    1
     4    14    16   ar
     5    16    17   ar
     6    17    18   ar
     7    18    19   ar
     8    19     1    1
     9     1     2   ar
    10     2     3   ar
    11     3     4   ar
    12     4     5   ar
    13     5     6    1
    14     5     7   ar
    15     7     8    1
    16     7     9   ar
    17     9    10   ar
    18    10    11   ar
    19    11    20    1
    20    20    21    1
    21    21    22    1
    22    19    13   ar
    23    11     1   ar
    24    22    20    1
    25    10     3   ar
@<TRIPOS>MOLECULE
*****
 22 25 0 0 0
SMALL
GASTEIGER

@<TRIPOS>ATOM
      1 C          65.3915   91.4038   13.4882 C.ar    1  UNL1        0.1450
      2 N          64.5933   90.1710   13.7934 N.ar    1  UNL1       -0.2267
      3 C          63.6363   89.9460   12.6605 C.ar    1  UNL1        0.1010
      4 C          62.6034   88.8865   12.4145 C.ar    1  UNL1        0.0526
      5 C          61.7772   88.9208   11.1631 C.ar    1  UNL1        0.1690
      6 F          60.7442   87.8613   10.9171 F       1  UNL1       -0.2017
      7 C          61.9839   90.0146   10.1576 C.ar    1  UNL1        0.1689
      8 F          61.1576   90.0488    8.9062 F       1  UNL1       -0.2017
      9 C          63.0168   91.0741   10.4036 C.ar    1  UNL1        0.0507
     10 C          63.8430   91.0398   11.6550 C.ar    1  UNL1        0.0812
     11 N          64.9277   91.9408   12.1666 N.ar    1  UNL1       -0.3132
     12 C          68.2324   91.4589   12.5258 C.3     1  UNL1        0.0336
     13 C          67.8853   92.0233   13.8716 C.ar    1  UNL1        0.0116
     14 C          68.9587   92.6153   14.7361 C.ar    1  UNL1        0.1553
     15 F          70.3792   92.6428   14.2549 F       1  UNL1       -0.2029
     16 C          68.6117   93.1797   16.0818 C.ar    1  UNL1        0.1281
     17 N          67.1912   93.1521   16.5630 N.ar    1  UNL1       -0.2399
     18 C          66.1178   92.5602   15.6984 C.ar    1  UNL1        0.1017
     19 C          66.4649   91.9958   14.3527 C.ar    1  UNL1        0.0515
     20 C          65.4559   93.1639   11.4775 C.3     1  UNL1        0.0870
     21 C          66.0168   94.5535   11.5461 C.3     1  UNL1        0.0245
     22 C          65.8100   93.8930   10.2153 C.3     1  UNL1        0.0245
@<TRIPOS>BOND
     1    12    13    1
     2    13    14   ar
     3    14    15    1
     4    14    16   ar
     5    16    17   ar
     6    17    18   ar
     7    18    19   ar
     8    19     1    1
     9     1     2   ar
    10     2     3   ar
    11     3     4   ar
    12     4     5   ar
    13     5     6    1
    14     5     7   ar
    15     7     8    1
    16     7     9   ar
    17     9    10   ar
    18    10    11   ar
    19    11    20    1
    20    20    21    1
    21    21    22    1
    22    19    13   ar
    23    11     1   ar
    24    22    20    1
    25    10     3   ar
@<TRIPOS>MOLECULE
*****
 22 25 0 0 0
SMALL
GASTEIGER

@<TRIPOS>ATOM
      1 C          62.4812   86.2016   11.9618 C.ar    1  UNL1        0.1450
      2 N          62.5088   85.5059   13.2905 N.ar    1  UNL1       -0.2267
      3 C          62.6246   84.0316   13.0395 C.ar    1  UNL1        0.1010
      4 C          62.6957   82.8576   13.9704 C.ar    1  UNL1        0.0526
      5 C          62.8107   81.4680   13.4175 C.ar    1  UNL1        0.1690
      6 F          62.8817   80.2938   14.3483 F       1  UNL1       -0.2017
      7 C          62.8546   81.2524   11.9337 C.ar    1  UNL1        0.1689
      8 F          62.9696   79.8627   11.3808 F       1  UNL1       -0.2017
      9 C          62.7835   82.4264   11.0028 C.ar    1  UNL1        0.0507
     10 C          62.6685   83.8160   11.5557 C.ar    1  UNL1        0.0812
     11 N          62.5799   85.1571   10.8897 N.ar    1  UNL1       -0.3132
     12 C          60.1151   87.3355   10.5072 C.3     1  UNL1        0.0336
     13 C          61.1908   88.2487   11.0164 C.ar    1  UNL1        0.0116
     14 C          61.0834   89.7288   10.7981 C.ar    1  UNL1        0.1553
     15 F          59.9003   90.2958   10.0708 F       1  UNL1       -0.2029
     16 C          62.1589   90.6420   11.3072 C.ar    1  UNL1        0.1281
     17 N          63.3419   90.0750   12.0345 N.ar    1  UNL1       -0.2399
     18 C          63.4494   88.5949   12.2527 C.ar    1  UNL1        0.1017
     19 C          62.3738   87.6817   11.7436 C.ar    1  UNL1        0.0515
     20 C          62.5885   85.4095    9.4111 C.3     1  UNL1        0.0870
     21 C          61.8758   85.8356    8.1619 C.3     1  UNL1        0.0245
     22 C          63.3159   85.4205    8.0994 C.3     1  UNL1        0.0245
@<TRIPOS>BOND
     1    12    13    1
     2    13    14   ar
     3    14    15    1
     4    14    16   ar
     5    16    17   ar
     6    17    18   ar
     7    18    19   ar
     8    19     1    1
     9     1     2   ar
    10     2     3   ar
    11     3     4   ar
    12     4     5   ar
    13     5     6    1
    14     5     7   ar
    15     7     8    1
    16     7     9   ar
    17     9    10   ar
    18    10    11   ar
    19    11    20    1
    20    20    21    1
    21    21    22    1
    22    19    13   ar
    23    11     1   ar
    24    22    20    1
    25    10     3   ar
@<TRIPOS>MOLECULE
*****
 22 25 0 0 0
SMALL
GASTEIGER

@<TRIPOS>ATOM
      1 C          61.8856   88.1025   10.2245 C.ar    1  UNL1        0.1450
      2 N          62.1751   89.5734   10.1725 N.ar    1  UNL1       -0.2267
      3 C          63.0039   89.9255   11.3721 C.ar    1  UNL1        0.1010
      4 C          63.5845   91.2254   11.8445 C.ar    1  UNL1        0.0526
      5 C          64.3879   91.2719   13.1103 C.ar    1  UNL1        0.1690
      6 F          64.9686   92.5719   13.5827 F       1  UNL1       -0.2017
      7 C          64.6107   90.0186   13.9037 C.ar    1  UNL1        0.1689
      8 F          65.4142   90.0652   15.1696 F       1  UNL1       -0.2017
      9 C          64.0302   88.7187   13.4313 C.ar    1  UNL1        0.0507
     10 C          63.2267   88.6722   12.1655 C.ar    1  UNL1        0.0812
     11 N          62.5356   87.5455   11.4562 N.ar    1  UNL1       -0.3132
     12 C          63.2263   86.0277    8.5222 C.3     1  UNL1        0.0336
     13 C          61.7568   86.2878    8.3698 C.ar    1  UNL1        0.0116
     14 C          60.9577   85.5104    7.3662 C.ar    1  UNL1        0.1553
     15 F          61.6281   84.4729    6.5151 F       1  UNL1       -0.2029
     16 C          59.4884   85.7704    7.2138 C.ar    1  UNL1        0.1281
     17 N          58.8181   86.8078    8.0649 N.ar    1  UNL1       -0.2399
     18 C          59.6172   87.5851    9.0685 C.ar    1  UNL1        0.1017
     19 C          61.0865   87.3251    9.2209 C.ar    1  UNL1        0.0515
     20 C          62.5006   86.1133   11.9007 C.3     1  UNL1        0.0870
     21 C          62.1280   84.6828   11.6459 C.3     1  UNL1        0.0245
     22 C          62.8125   85.0632   12.9253 C.3     1  UNL1        0.0245
@<TRIPOS>BOND
     1    12    13    1
     2    13    14   ar
     3    14    15    1
     4    14    16   ar
     5    16    17   ar
     6    17    18   ar
     7    18    19   ar
     8    19     1    1
     9     1     2   ar
    10     2     3   ar
    11     3     4   ar
    12     4     5   ar
    13     5     6    1
    14     5     7   ar
    15     7     8    1
    16     7     9   ar
    17     9    10   ar
    18    10    11   ar
    19    11    20    1
    20    20    21    1
    21    21    22    1
    22    19    13   ar
    23    11     1   ar
    24    22    20    1
    25    10     3   ar
@<TRIPOS>MOLECULE
*****
 22 25 0 0 0
SMALL
GASTEIGER

@<TRIPOS>ATOM
      1 C          63.4462   89.9571   11.7191 C.ar    1  UNL1        0.1450
      2 N          63.8297   91.0245   10.7375 N.ar    1  UNL1       -0.2267
      3 C          64.6823   92.0290   11.4544 C.ar    1  UNL1        0.1010
      4 C          65.3466   93.2925   10.9939 C.ar    1  UNL1        0.0526
      5 C          66.1544   94.1095   11.9581 C.ar    1  UNL1        0.1690
      6 F          66.8187   95.3732   11.4977 F       1  UNL1       -0.2017
      7 C          66.2979   93.6630   13.3829 C.ar    1  UNL1        0.1689
      8 F          67.1058   94.4801   14.3472 F       1  UNL1       -0.2017
      9 C          65.6337   92.3994   13.8434 C.ar    1  UNL1        0.0507
     10 C          64.8259   91.5824   12.8791 C.ar    1  UNL1        0.0812
     11 N          64.0619   90.3020   13.0428 N.ar    1  UNL1       -0.3132
     12 C          60.9158   90.2578   10.1359 C.3     1  UNL1        0.0336
     13 C          61.3311   88.9062   10.6367 C.ar    1  UNL1        0.0116
     14 C          60.4812   87.7049   10.3458 C.ar    1  UNL1        0.1553
     15 F          59.2159   87.8553    9.5541 F       1  UNL1       -0.2029
     16 C          60.8964   86.3533   10.8465 C.ar    1  UNL1        0.1281
     17 N          62.1616   86.2030   11.6382 N.ar    1  UNL1       -0.2399
     18 C          63.0115   87.4043   11.9290 C.ar    1  UNL1        0.1017
     19 C          62.5963   88.7559   11.4283 C.ar    1  UNL1        0.0515
     20 C          63.9358   89.5061   14.3079 C.3     1  UNL1        0.0870
     21 C          64.2024   88.2511   15.0852 C.3     1  UNL1        0.0245
     22 C          63.4508   89.3824   15.7220 C.3     1  UNL1        0.0245
@<TRIPOS>BOND
     1    12    13    1
     2    13    14   ar
     3    14    15    1
     4    14    16   ar
     5    16    17   ar
     6    17    18   ar
     7    18    19   ar
     8    19     1    1
     9     1     2   ar
    10     2     3   ar
    11     3     4   ar
    12     4     5   ar
    13     5     6    1
    14     5     7   ar
    15     7     8    1
    16     7     9   ar
    17     9    10   ar
    18    10    11   ar
    19    11    20    1
    20    20    21    1
    21    21    22    1
    22    19    13   ar
    23    11     1   ar
    24    22    20    1
    25    10     3   ar
