@<TRIPOS>MOLECULE
*****
 31 35 0 0 0
SMALL
GASTEIGER

@<TRIPOS>ATOM
      1 C          59.4730   88.9260    7.2144 C.ar    1  UNL1        0.1035
      2 C          58.6162   87.6956    7.1703 C.ar    1  UNL1        0.1197
      3 N          58.8735   86.9066    8.4198 N.ar    1  UNL1       -0.2234
      4 C          59.8894   87.6493    9.2361 C.ar    1  UNL1        0.1639
      5 C          60.5249   87.3503   10.5615 C.ar    1  UNL1        0.0404
      6 C          61.5310   88.2995   11.1419 C.ar    1  UNL1        0.0240
      7 C          61.9015   89.5476   10.3970 C.ar    1  UNL1        0.1014
      8 N          61.2660   89.8465    9.0716 N.ar    1  UNL1       -0.1638
      9 N          60.2600   88.8974    8.4912 N.ar    1  UNL1       -0.2107
     10 C          59.6516   92.1390    4.0688 C.ar    1  UNL1        0.0684
     11 C          60.9067   91.4382    4.4972 C.ar    1  UNL1        0.0103
     12 C          60.8471   90.3672    5.5457 C.ar    1  UNL1        0.0022
     13 C          59.5326   89.9970    6.1659 C.ar    1  UNL1        0.0193
     14 C          58.2774   90.6978    5.7375 C.ar    1  UNL1        0.0022
     15 C          58.3369   91.7688    4.6890 C.ar    1  UNL1        0.0103
     16 N          59.7707   94.2809    1.9717 N.1     1  UNL1       -0.1908
     17 C          59.7111   93.2100    3.0203 C.1     1  UNL1        0.1004
     18 C          62.9076   90.4967   10.9774 C.ar    1  UNL1        0.0194
     19 C          63.1954   90.4767   12.4494 C.ar    1  UNL1        0.0017
     20 C          64.2015   91.4259   13.0299 C.ar    1  UNL1        0.0046
     21 C          64.9198   92.3951   12.1383 C.ar    1  UNL1        0.0536
     22 C          64.6319   92.4150   10.6663 C.ar    1  UNL1        0.0046
     23 C          63.6259   91.4659   10.0859 C.ar    1  UNL1        0.0017
     24 C          65.9259   93.3442   12.7188 C.2     1  UNL1        0.2492
     25 O          66.1078   94.7055   12.1156 O.2     1  UNL1       -0.2699
     26 N          66.7500   92.9321   13.9023 N.am    1  UNL1       -0.2709
     27 C          66.5681   91.5708   14.5055 C.3     1  UNL1        0.1258
     28 C          67.3923   91.1586   15.6891 C.3     1  UNL1        0.1637
     29 O          68.3984   92.1078   16.2695 O.3     1  UNL1       -0.3501
     30 C          68.5803   93.4691   15.6663 C.3     1  UNL1        0.1637
     31 C          67.7561   93.8812   14.4828 C.3     1  UNL1        0.1258
@<TRIPOS>BOND
     1    16    17    3
     2    17    10    1
     3    10    11   ar
     4    11    12   ar
     5    12    13   ar
     6    13     1    1
     7     1     2   ar
     8     2     3   ar
     9     3     4   ar
    10     4     5   ar
    11     5     6   ar
    12     6     7   ar
    13     7    18    1
    14    18    19   ar
    15    19    20   ar
    16    20    21   ar
    17    21    24    1
    18    24    25    2
    19    24    26   am
    20    26    27    1
    21    27    28    1
    22    28    29    1
    23    29    30    1
    24    30    31    1
    25    21    22   ar
    26    22    23   ar
    27     7     8   ar
    28     8     9   ar
    29    13    14   ar
    30    14    15   ar
    31    15    10   ar
    32     9     1   ar
    33     9     4   ar
    34    23    18   ar
    35    31    26    1
@<TRIPOS>MOLECULE
*****
 31 35 0 0 0
SMALL
GASTEIGER

@<TRIPOS>ATOM
      1 C          61.5936   85.8853   10.1227 C.ar    1  UNL1        0.1035
      2 C          60.7024   85.7541    8.9233 C.ar    1  UNL1        0.1197
      3 N          60.4090   87.1329    8.4108 N.ar    1  UNL1       -0.2234
      4 C          61.1188   88.1163    9.2934 C.ar    1  UNL1        0.1639
      5 C          61.1930   89.6143    9.2704 C.ar    1  UNL1        0.0404
      6 C          61.9994   90.3412   10.3054 C.ar    1  UNL1        0.0240
      7 C          62.7315   89.5702   11.3635 C.ar    1  UNL1        0.1014
      8 N          62.6573   88.0722   11.3865 N.ar    1  UNL1       -0.1638
      9 N          61.8509   87.3453   10.3515 N.ar    1  UNL1       -0.2107
     10 C          63.2111   82.4946   12.6000 C.ar    1  UNL1        0.0684
     11 C          63.2585   82.4187   11.1027 C.ar    1  UNL1        0.0103
     12 C          62.7193   83.5489   10.2770 C.ar    1  UNL1        0.0022
     13 C          62.1328   84.7551   10.9485 C.ar    1  UNL1        0.0193
     14 C          62.0854   84.8311   12.4459 C.ar    1  UNL1        0.0022
     15 C          62.6246   83.7008   13.2716 C.ar    1  UNL1        0.0103
     16 N          64.2894   80.2341   14.2515 N.1     1  UNL1       -0.1908
     17 C          63.7503   81.3644   13.4258 C.1     1  UNL1        0.1004
     18 C          63.5379   90.2972   12.3985 C.ar    1  UNL1        0.0194
     19 C          63.6077   89.7702   13.8012 C.ar    1  UNL1        0.0017
     20 C          64.4141   90.4972   14.8362 C.ar    1  UNL1        0.0046
     21 C          65.1507   91.7511   14.4686 C.ar    1  UNL1        0.0536
     22 C          65.0809   92.2780   13.0659 C.ar    1  UNL1        0.0046
     23 C          64.2745   91.5511   12.0309 C.ar    1  UNL1        0.0017
     24 C          65.9571   92.4781   15.5036 C.2     1  UNL1        0.2492
     25 O          65.2984   92.9701   16.7582 O.2     1  UNL1       -0.2699
     26 N          67.4221   92.7131   15.2839 N.am    1  UNL1       -0.2709
     27 C          68.0808   92.2211   14.0293 C.3     1  UNL1        0.1258
     28 C          69.5460   92.4561   13.8097 C.3     1  UNL1        0.1637
     29 O          70.3524   93.1831   14.8447 O.3     1  UNL1       -0.3501
     30 C          69.6937   93.6751   16.0993 C.3     1  UNL1        0.1637
     31 C          68.2286   93.4401   16.3189 C.3     1  UNL1        0.1258
@<TRIPOS>BOND
     1    16    17    3
     2    17    10    1
     3    10    11   ar
     4    11    12   ar
     5    12    13   ar
     6    13     1    1
     7     1     2   ar
     8     2     3   ar
     9     3     4   ar
    10     4     5   ar
    11     5     6   ar
    12     6     7   ar
    13     7    18    1
    14    18    19   ar
    15    19    20   ar
    16    20    21   ar
    17    21    24    1
    18    24    25    2
    19    24    26   am
    20    26    27    1
    21    27    28    1
    22    28    29    1
    23    29    30    1
    24    30    31    1
    25    21    22   ar
    26    22    23   ar
    27     7     8   ar
    28     8     9   ar
    29    13    14   ar
    30    14    15   ar
    31    15    10   ar
    32     9     1   ar
    33     9     4   ar
    34    23    18   ar
    35    31    26    1
@<TRIPOS>MOLECULE
*****
 31 35 0 0 0
SMALL
GASTEIGER

@<TRIPOS>ATOM
      1 C          72.6946   74.6677   14.2858 C.ar    1  UNL1        0.1035
      2 C          72.9938   74.3706   15.7253 C.ar    1  UNL1        0.1197
      3 N          73.3761   75.6575   16.3944 N.ar    1  UNL1       -0.2234
      4 C          73.3131   76.7500   15.3684 C.ar    1  UNL1        0.1639
      5 C          73.5849   78.2227   15.4525 C.ar    1  UNL1        0.0404
      6 C          73.4355   79.0837   14.2334 C.ar    1  UNL1        0.0240
      7 C          73.0144   78.4719   12.9302 C.ar    1  UNL1        0.1014
      8 N          72.7426   76.9992   12.8461 N.ar    1  UNL1       -0.1638
      9 N          72.8920   76.1382   14.0652 N.ar    1  UNL1       -0.2107
     10 C          71.4276   71.6732   11.1749 C.ar    1  UNL1        0.0684
     11 C          70.5871   71.8840   12.3992 C.ar    1  UNL1        0.0103
     12 C          71.0094   72.8822   13.4361 C.ar    1  UNL1        0.0022
     13 C          72.2723   73.6695   13.2488 C.ar    1  UNL1        0.0193
     14 C          73.1129   73.4587   12.0244 C.ar    1  UNL1        0.0022
     15 C          72.6905   72.4605   10.9875 C.ar    1  UNL1        0.0103
     16 N          70.5830   69.6769    9.1010 N.1     1  UNL1       -0.1908
     17 C          71.0052   70.6750   10.1379 C.1     1  UNL1        0.1004
     18 C          72.8650   79.3330   11.7110 C.ar    1  UNL1        0.0194
     19 C          72.3350   78.7442   10.4373 C.ar    1  UNL1        0.0017
     20 C          72.1856   79.6053    9.2181 C.ar    1  UNL1        0.0046
     21 C          72.5663   81.0551    9.2727 C.ar    1  UNL1        0.0536
     22 C          73.0964   81.6439   10.5465 C.ar    1  UNL1        0.0046
     23 C          73.2457   80.7829   11.7656 C.ar    1  UNL1        0.0017
     24 C          72.4170   81.9162    8.0536 C.2     1  UNL1        0.2492
     25 O          71.9128   83.3227    8.1860 O.2     1  UNL1       -0.2699
     26 N          72.7718   81.3707    6.7022 N.am    1  UNL1       -0.2709
     27 C          73.2759   79.9642    6.5698 C.3     1  UNL1        0.1258
     28 C          73.6308   79.4188    5.2182 C.3     1  UNL1        0.1637
     29 O          73.4814   80.2798    3.9991 O.3     1  UNL1       -0.3501
     30 C          72.9773   81.6864    4.1315 C.3     1  UNL1        0.1637
     31 C          72.6224   82.2318    5.4830 C.3     1  UNL1        0.1258
@<TRIPOS>BOND
     1    16    17    3
     2    17    10    1
     3    10    11   ar
     4    11    12   ar
     5    12    13   ar
     6    13     1    1
     7     1     2   ar
     8     2     3   ar
     9     3     4   ar
    10     4     5   ar
    11     5     6   ar
    12     6     7   ar
    13     7    18    1
    14    18    19   ar
    15    19    20   ar
    16    20    21   ar
    17    21    24    1
    18    24    25    2
    19    24    26   am
    20    26    27    1
    21    27    28    1
    22    28    29    1
    23    29    30    1
    24    30    31    1
    25    21    22   ar
    26    22    23   ar
    27     7     8   ar
    28     8     9   ar
    29    13    14   ar
    30    14    15   ar
    31    15    10   ar
    32     9     1   ar
    33     9     4   ar
    34    23    18   ar
    35    31    26    1
@<TRIPOS>MOLECULE
*****
 31 35 0 0 0
SMALL
GASTEIGER

@<TRIPOS>ATOM
      1 C          63.2631   93.5018    1.1741 C.ar    1  UNL1        0.1035
      2 C          64.7212   93.7070    1.4600 C.ar    1  UNL1        0.1197
      3 N          65.3581   94.2830    0.2302 N.ar    1  UNL1       -0.2234
      4 C          64.2937   94.4339   -0.8158 C.ar    1  UNL1        0.1639
      5 C          64.3361   94.9485   -2.2241 C.ar    1  UNL1        0.0404
      6 C          63.0838   94.9803   -3.0490 C.ar    1  UNL1        0.0240
      7 C          61.7889   94.4975   -2.4657 C.ar    1  UNL1        0.1014
      8 N          61.7465   93.9829   -1.0574 N.ar    1  UNL1       -0.1638
      9 N          62.9988   93.9511   -0.2325 N.ar    1  UNL1       -0.2107
     10 C          60.2163   91.8318    4.0338 C.ar    1  UNL1        0.0684
     11 C          59.8381   92.9425    3.0993 C.ar    1  UNL1        0.0103
     12 C          60.8537   93.4991    2.1461 C.ar    1  UNL1        0.0022
     13 C          62.2475   92.9452    2.1273 C.ar    1  UNL1        0.0193
     14 C          62.6257   91.8344    3.0619 C.ar    1  UNL1        0.0022
     15 C          61.6101   91.2778    4.0151 C.ar    1  UNL1        0.0103
     16 N          58.1850   90.7185    5.9402 N.1     1  UNL1       -0.1908
     17 C          59.2006   91.2751    4.9871 C.1     1  UNL1        0.1004
     18 C          60.5365   94.5294   -3.2907 C.ar    1  UNL1        0.0194
     19 C          59.4775   93.4869   -3.0869 C.ar    1  UNL1        0.0017
     20 C          58.2251   93.5188   -3.9119 C.ar    1  UNL1        0.0046
     21 C          58.0318   94.5932   -4.9406 C.ar    1  UNL1        0.0536
     22 C          59.0909   95.6357   -5.1444 C.ar    1  UNL1        0.0046
     23 C          60.3433   95.6038   -4.3194 C.ar    1  UNL1        0.0017
     24 C          56.7795   94.6251   -5.7656 C.2     1  UNL1        0.2492
     25 O          56.7333   93.9160   -7.0867 O.2     1  UNL1       -0.2699
     26 N          55.5733   95.3660   -5.2696 N.am    1  UNL1       -0.2709
     27 C          55.6195   96.0751   -3.9485 C.3     1  UNL1        0.1258
     28 C          54.4132   96.8160   -3.4525 C.3     1  UNL1        0.1637
     29 O          53.1609   96.8479   -4.2775 O.3     1  UNL1       -0.3501
     30 C          53.1148   96.1389   -5.5985 C.3     1  UNL1        0.1637
     31 C          54.3209   95.3979   -6.0946 C.3     1  UNL1        0.1258
@<TRIPOS>BOND
     1    16    17    3
     2    17    10    1
     3    10    11   ar
     4    11    12   ar
     5    12    13   ar
     6    13     1    1
     7     1     2   ar
     8     2     3   ar
     9     3     4   ar
    10     4     5   ar
    11     5     6   ar
    12     6     7   ar
    13     7    18    1
    14    18    19   ar
    15    19    20   ar
    16    20    21   ar
    17    21    24    1
    18    24    25    2
    19    24    26   am
    20    26    27    1
    21    27    28    1
    22    28    29    1
    23    29    30    1
    24    30    31    1
    25    21    22   ar
    26    22    23   ar
    27     7     8   ar
    28     8     9   ar
    29    13    14   ar
    30    14    15   ar
    31    15    10   ar
    32     9     1   ar
    33     9     4   ar
    34    23    18   ar
    35    31    26    1
@<TRIPOS>MOLECULE
*****
 31 35 0 0 0
SMALL
GASTEIGER

@<TRIPOS>ATOM
      1 C          63.6066   93.9460    1.1310 C.ar    1  UNL1        0.1035
      2 C          65.0355   94.1790    1.5232 C.ar    1  UNL1        0.1197
      3 N          65.7433   94.7935    0.3521 N.ar    1  UNL1       -0.2234
      4 C          64.7518   94.9403   -0.7639 C.ar    1  UNL1        0.1639
      5 C          64.8808   95.4832   -2.1562 C.ar    1  UNL1        0.0404
      6 C          63.6893   95.5023   -3.0671 C.ar    1  UNL1        0.0240
      7 C          62.3687   94.9785   -2.5857 C.ar    1  UNL1        0.1014
      8 N          62.2397   94.4356   -1.1934 N.ar    1  UNL1       -0.1638
      9 N          63.4312   94.4165   -0.2825 N.ar    1  UNL1       -0.2107
     10 C          60.4073   92.1507    3.7371 C.ar    1  UNL1        0.0684
     11 C          61.8021   91.6002    3.7751 C.ar    1  UNL1        0.0103
     12 C          62.8685   92.1987    2.9064 C.ar    1  UNL1        0.0022
     13 C          62.5402   93.3476    1.9997 C.ar    1  UNL1        0.0193
     14 C          61.1453   93.8981    1.9617 C.ar    1  UNL1        0.0022
     15 C          60.0789   93.2997    2.8304 C.ar    1  UNL1        0.0103
     16 N          58.2745   90.9540    5.4746 N.1     1  UNL1       -0.1908
     17 C          59.3409   91.5523    4.6059 C.1     1  UNL1        0.1004
     18 C          61.1771   94.9977   -3.4967 C.ar    1  UNL1        0.0194
     19 C          59.8111   95.2681   -2.9393 C.ar    1  UNL1        0.0017
     20 C          58.6196   95.2873   -3.8503 C.ar    1  UNL1        0.0046
     21 C          58.7941   95.0360   -5.3188 C.ar    1  UNL1        0.0536
     22 C          60.1602   94.7655   -5.8762 C.ar    1  UNL1        0.0046
     23 C          61.3517   94.7463   -4.9652 C.ar    1  UNL1        0.0017
     24 C          57.6026   95.0551   -6.2298 C.2     1  UNL1        0.2492
     25 O          57.2147   96.3233   -6.9307 O.2     1  UNL1       -0.2699
     26 N          56.7990   93.8061   -6.4398 N.am    1  UNL1       -0.2709
     27 C          57.1869   92.5380   -5.7388 C.3     1  UNL1        0.1258
     28 C          56.3832   91.2889   -5.9489 C.3     1  UNL1        0.1637
     29 O          55.1918   91.3080   -6.8599 O.3     1  UNL1       -0.3501
     30 C          54.8039   92.5762   -7.5609 C.3     1  UNL1        0.1637
     31 C          55.6075   93.8252   -7.3508 C.3     1  UNL1        0.1258
@<TRIPOS>BOND
     1    16    17    3
     2    17    10    1
     3    10    11   ar
     4    11    12   ar
     5    12    13   ar
     6    13     1    1
     7     1     2   ar
     8     2     3   ar
     9     3     4   ar
    10     4     5   ar
    11     5     6   ar
    12     6     7   ar
    13     7    18    1
    14    18    19   ar
    15    19    20   ar
    16    20    21   ar
    17    21    24    1
    18    24    25    2
    19    24    26   am
    20    26    27    1
    21    27    28    1
    22    28    29    1
    23    29    30    1
    24    30    31    1
    25    21    22   ar
    26    22    23   ar
    27     7     8   ar
    28     8     9   ar
    29    13    14   ar
    30    14    15   ar
    31    15    10   ar
    32     9     1   ar
    33     9     4   ar
    34    23    18   ar
    35    31    26    1
