@<TRIPOS>MOLECULE
*****
 33 36 0 0 0
SMALL
GASTEIGER

@<TRIPOS>ATOM
      1 C          61.9643   85.8866   10.5110 C.3     1  UNL1        0.0230
      2 C          62.7336   86.2465   11.7474 C.3     1  UNL1        0.0920
      3 C          62.8940   87.6857   12.1384 C.3     1  UNL1        0.1151
      4 N          63.6633   88.0457   13.3748 N.3     1  UNL1       -0.1560
      5 C          64.2721   86.9665   14.2201 C.3     1  UNL1        0.1169
      6 C          64.1117   85.5273   13.8291 C.3     1  UNL1        0.1113
      7 N          63.3424   85.1673   12.5927 N.pl3   1  UNL1       -0.2902
      8 C          63.1819   83.7281   12.2017 C.ar    1  UNL1        0.1594
      9 N          63.7167   83.2442   10.8865 N.ar    1  UNL1       -0.2269
     10 C          63.5561   81.8050   10.4954 C.ar    1  UNL1        0.1043
     11 C          62.8608   80.8497   11.4196 C.ar    1  UNL1        0.0929
     12 C          62.3260   81.3336   12.7348 C.ar    1  UNL1        0.0380
     13 C          62.4866   82.7728   13.1258 C.ar    1  UNL1        0.1715
     14 F          61.9518   83.2568   14.4410 F       1  UNL1       -0.2012
     15 C          62.7002   79.4105   11.0286 C.3     1  UNL1        0.4201
     16 F          62.5397   77.9713   10.6377 F       1  UNL1       -0.1658
     17 F          62.4411   79.0501   12.4615 F       1  UNL1       -0.1658
     18 F          62.9593   79.7708    9.5958 F       1  UNL1       -0.1658
     19 S          63.8238   89.4850   13.7659 S.O2    1  UNL1        0.0440
     20 O          62.5885   89.8337   12.9899 O.2     1  UNL1       -0.1573
     21 O          65.0592   89.1362   14.5419 O.2     1  UNL1       -0.1573
     22 C          63.9844   90.9241   14.1571 C.3     1  UNL1        0.1713
     23 C          64.8159   91.8428   13.3117 C.3     1  UNL1        0.0483
     24 C          64.7024   92.0184   11.8264 C.3     1  UNL1        0.0041
     25 C          65.7233   93.0313   11.4000 C.3     1  UNL1        0.0002
     26 C          66.4677   93.4818   12.6219 C.3     1  UNL1        0.0025
     27 C          66.5813   93.3062   14.1072 C.3     1  UNL1        0.0293
     28 C          65.5604   92.2932   14.5336 C.3     1  UNL1        0.1121
     29 O          65.3252   91.8148   15.9356 O.3     1  UNL1       -0.3844
     30 C          65.9070   92.7472   13.8034 C.3     1  UNL1        0.0039
     31 C          66.7845   93.3503   14.8599 C.3     1  UNL1        0.0001
     32 C          65.8260   92.3993   15.2603 C.3     1  UNL1        0.0001
     33 H          65.9397   92.2630   16.5376 H       1  UNL1        0.2103
@<TRIPOS>BOND
     1     2     1    1
     2     2     3    1
     3     3     4    1
     4     4    19    1
     5    19    20    2
     6    19    21    2
     7    19    22    1
     8    23    22    1
     9    23    24    1
    10    24    25    1
    11    26    25    1
    12    26    27    1
    13    27    28    1
    14    28    29    1
    15    26    30    1
    16    30    31    1
    17    30    32    1
    18     4     5    1
    19     5     6    1
    20     6     7    1
    21     7     8    1
    22     8     9   ar
    23     9    10   ar
    24    10    11   ar
    25    11    15    1
    26    15    16    1
    27    15    17    1
    28    15    18    1
    29    11    12   ar
    30    12    13   ar
    31    13    14    1
    32     7     2    1
    33    13     8   ar
    34    28    23    1
    35    30    23    1
    36    29    33    1
@<TRIPOS>MOLECULE
*****
 33 36 0 0 0
SMALL
GASTEIGER

@<TRIPOS>ATOM
      1 C          61.6491   85.8114   10.4130 C.3     1  UNL1        0.0230
      2 C          62.5057   86.2295   11.5712 C.3     1  UNL1        0.0920
      3 C          62.6430   87.6827   11.9164 C.3     1  UNL1        0.1151
      4 N          63.4997   88.1008   13.0745 N.3     1  UNL1       -0.1560
      5 C          64.2189   87.0656   13.8876 C.3     1  UNL1        0.1169
      6 C          64.0816   85.6123   13.5424 C.3     1  UNL1        0.1113
      7 N          63.2250   85.1943   12.3842 N.pl3   1  UNL1       -0.2902
      8 C          63.0876   83.7411   12.0389 C.ar    1  UNL1        0.1594
      9 N          62.3439   82.8186   12.9588 N.ar    1  UNL1       -0.2269
     10 C          62.2066   81.3654   12.6134 C.ar    1  UNL1        0.1043
     11 C          62.8128   80.8345   11.3483 C.ar    1  UNL1        0.0929
     12 C          63.5565   81.7569   10.4284 C.ar    1  UNL1        0.0380
     13 C          63.6939   83.2102   10.7738 C.ar    1  UNL1        0.1715
     14 F          64.4375   84.1326    9.8539 F       1  UNL1       -0.2012
     15 C          62.6755   79.3813   11.0029 C.3     1  UNL1        0.4201
     16 F          62.5382   77.9281   10.6575 F       1  UNL1       -0.1658
     17 F          63.0136   79.6889    9.5742 F       1  UNL1       -0.1658
     18 F          62.3374   79.0738   12.4316 F       1  UNL1       -0.1658
     19 S          63.6371   89.5541   13.4198 S.O2    1  UNL1        0.0440
     20 O          63.7938   89.1953   14.8678 O.2     1  UNL1       -0.1573
     21 O          63.4804   89.9128   11.9718 O.2     1  UNL1       -0.1573
     22 C          63.7745   91.0073   13.7650 C.3     1  UNL1        0.1713
     23 C          64.7305   91.8730   12.9990 C.3     1  UNL1        0.0483
     24 C          64.6658   92.1729   11.5307 C.3     1  UNL1        0.0041
     25 C          65.8144   93.0760   11.1911 C.3     1  UNL1        0.0002
     26 C          66.5888   93.3343   12.4495 C.3     1  UNL1        0.0025
     27 C          66.6534   93.0344   13.9178 C.3     1  UNL1        0.0293
     28 C          65.5049   92.1312   14.2575 C.3     1  UNL1        0.1121
     29 O          65.1867   91.5827   15.6167 O.3     1  UNL1       -0.3844
     30 C          65.9189   92.5908   13.5669 C.3     1  UNL1        0.0039
     31 C          66.8475   92.9954   14.6732 C.3     1  UNL1        0.0001
     32 C          65.7692   92.1475   14.9921 C.3     1  UNL1        0.0001
     33 H          65.8426   91.9021   16.2560 H       1  UNL1        0.2103
@<TRIPOS>BOND
     1     2     1    1
     2     2     3    1
     3     3     4    1
     4     4    19    1
     5    19    20    2
     6    19    21    2
     7    19    22    1
     8    23    22    1
     9    23    24    1
    10    24    25    1
    11    26    25    1
    12    26    27    1
    13    27    28    1
    14    28    29    1
    15    26    30    1
    16    30    31    1
    17    30    32    1
    18     4     5    1
    19     5     6    1
    20     6     7    1
    21     7     8    1
    22     8     9   ar
    23     9    10   ar
    24    10    11   ar
    25    11    15    1
    26    15    16    1
    27    15    17    1
    28    15    18    1
    29    11    12   ar
    30    12    13   ar
    31    13    14    1
    32     7     2    1
    33    13     8   ar
    34    28    23    1
    35    30    23    1
    36    29    33    1
@<TRIPOS>MOLECULE
*****
 33 36 0 0 0
SMALL
GASTEIGER

@<TRIPOS>ATOM
      1 C          64.6204   84.6844   14.4394 C.3     1  UNL1        0.0230
      2 C          63.9717   85.6901   13.5353 C.3     1  UNL1        0.0920
      3 C          64.0937   87.1552   13.8332 C.3     1  UNL1        0.1151
      4 N          63.4449   88.1609   12.9290 N.3     1  UNL1       -0.1560
      5 C          62.6741   87.7017   11.7270 C.3     1  UNL1        0.1169
      6 C          62.5521   86.2367   11.4291 C.3     1  UNL1        0.1113
      7 N          63.2008   85.2309   12.3332 N.pl3   1  UNL1       -0.2902
      8 C          63.0789   83.7659   12.0354 C.ar    1  UNL1        0.1594
      9 N          62.4255   82.8505   13.0280 N.ar    1  UNL1       -0.2269
     10 C          62.3036   81.3855   12.7301 C.ar    1  UNL1        0.1043
     11 C          62.8350   80.8357   11.4395 C.ar    1  UNL1        0.0929
     12 C          63.4883   81.7510   10.4469 C.ar    1  UNL1        0.0380
     13 C          63.6102   83.2161   10.7448 C.ar    1  UNL1        0.1715
     14 F          64.2635   84.1314    9.7522 F       1  UNL1       -0.2012
     15 C          62.7130   79.3706   11.1416 C.3     1  UNL1        0.4201
     16 F          62.5911   77.9056   10.8438 F       1  UNL1       -0.1658
     17 F          62.4686   79.0953   12.5958 F       1  UNL1       -0.1658
     18 F          62.9575   79.6460    9.6875 F       1  UNL1       -0.1658
     19 S          63.5669   89.6261   13.2269 S.O2    1  UNL1        0.0440
     20 O          62.5674   89.9282   12.1500 O.2     1  UNL1       -0.1573
     21 O          64.5664   89.3238   14.3037 O.2     1  UNL1       -0.1573
     22 C          63.6889   91.0911   13.5248 C.3     1  UNL1        0.1713
     23 C          65.0107   91.6639   13.9429 C.3     1  UNL1        0.0483
     24 C          65.6060   91.5953   15.3180 C.3     1  UNL1        0.0041
     25 C          66.9324   92.2948   15.2842 C.3     1  UNL1        0.0002
     26 C          67.1570   92.7957   13.8883 C.3     1  UNL1        0.0025
     27 C          66.5617   92.8643   12.5132 C.3     1  UNL1        0.0293
     28 C          65.2352   92.1647   12.5469 C.3     1  UNL1        0.1121
     29 O          64.2978   91.9957   11.3882 O.3     1  UNL1       -0.3844
     30 C          65.9693   92.4057   13.0593 C.3     1  UNL1        0.0039
     31 C          66.4198   92.9984   11.7571 C.3     1  UNL1        0.0001
     32 C          65.1744   92.3417   11.7888 C.3     1  UNL1        0.0001
     33 H          64.6802   92.4116   10.5997 H       1  UNL1        0.2103
@<TRIPOS>BOND
     1     2     1    1
     2     2     3    1
     3     3     4    1
     4     4    19    1
     5    19    20    2
     6    19    21    2
     7    19    22    1
     8    23    22    1
     9    23    24    1
    10    24    25    1
    11    26    25    1
    12    26    27    1
    13    27    28    1
    14    28    29    1
    15    26    30    1
    16    30    31    1
    17    30    32    1
    18     4     5    1
    19     5     6    1
    20     6     7    1
    21     7     8    1
    22     8     9   ar
    23     9    10   ar
    24    10    11   ar
    25    11    15    1
    26    15    16    1
    27    15    17    1
    28    15    18    1
    29    11    12   ar
    30    12    13   ar
    31    13    14    1
    32     7     2    1
    33    13     8   ar
    34    28    23    1
    35    30    23    1
    36    29    33    1
@<TRIPOS>MOLECULE
*****
 33 36 0 0 0
SMALL
GASTEIGER

@<TRIPOS>ATOM
      1 C          61.9049   85.9189   10.3439 C.3     1  UNL1        0.0230
      2 C          62.6550   86.3460   11.5706 C.3     1  UNL1        0.0920
      3 C          62.7840   87.8033   11.9013 C.3     1  UNL1        0.1151
      4 N          63.5342   88.2305   13.1280 N.3     1  UNL1       -0.1560
      5 C          64.1553   87.2002   14.0240 C.3     1  UNL1        0.1169
      6 C          64.0263   85.7428   13.6933 C.3     1  UNL1        0.1113
      7 N          63.2761   85.3157   12.4666 N.pl3   1  UNL1       -0.2902
      8 C          63.1471   83.8584   12.1358 C.ar    1  UNL1        0.1594
      9 N          63.6837   83.3336   10.8371 N.ar    1  UNL1       -0.2269
     10 C          63.5546   81.8763   10.5064 C.ar    1  UNL1        0.1043
     11 C          62.8888   80.9436   11.4743 C.ar    1  UNL1        0.0929
     12 C          62.3522   81.4683   12.7730 C.ar    1  UNL1        0.0380
     13 C          62.4813   82.9257   13.1038 C.ar    1  UNL1        0.1715
     14 F          61.9447   83.4504   14.4025 F       1  UNL1       -0.2012
     15 C          62.7597   79.4862   11.1436 C.3     1  UNL1        0.4201
     16 F          62.6306   78.0288   10.8130 F       1  UNL1       -0.1658
     17 F          62.5185   79.1789   12.5919 F       1  UNL1       -0.1658
     18 F          63.0009   79.7935    9.6954 F       1  UNL1       -0.1658
     19 S          63.6633   89.6879   13.4589 S.O2    1  UNL1        0.0440
     20 O          64.7307   89.3656   14.4622 O.2     1  UNL1       -0.1573
     21 O          62.5958   90.0101   12.4555 O.2     1  UNL1       -0.1573
     22 C          63.7923   91.1453   13.7896 C.3     1  UNL1        0.1713
     23 C          65.1304   91.7157   14.1554 C.3     1  UNL1        0.0483
     24 C          65.7620   91.6804   15.5155 C.3     1  UNL1        0.0041
     25 C          67.0939   92.3645   15.4260 C.3     1  UNL1        0.0002
     26 C          67.2855   92.8227   14.0105 C.3     1  UNL1        0.0025
     27 C          66.6539   92.8581   12.6505 C.3     1  UNL1        0.0293
     28 C          65.3219   92.1739   12.7400 C.3     1  UNL1        0.1121
     29 O          64.3520   91.9817   11.6121 O.3     1  UNL1       -0.3844
     30 C          66.0720   92.4217   13.2253 C.3     1  UNL1        0.0039
     31 C          66.4930   92.9720   11.8949 C.3     1  UNL1        0.0001
     32 C          65.2424   92.3296   11.9789 C.3     1  UNL1        0.0001
     33 H          64.7169   92.3707   10.8020 H       1  UNL1        0.2103
@<TRIPOS>BOND
     1     2     1    1
     2     2     3    1
     3     3     4    1
     4     4    19    1
     5    19    20    2
     6    19    21    2
     7    19    22    1
     8    23    22    1
     9    23    24    1
    10    24    25    1
    11    26    25    1
    12    26    27    1
    13    27    28    1
    14    28    29    1
    15    26    30    1
    16    30    31    1
    17    30    32    1
    18     4     5    1
    19     5     6    1
    20     6     7    1
    21     7     8    1
    22     8     9   ar
    23     9    10   ar
    24    10    11   ar
    25    11    15    1
    26    15    16    1
    27    15    17    1
    28    15    18    1
    29    11    12   ar
    30    12    13   ar
    31    13    14    1
    32     7     2    1
    33    13     8   ar
    34    28    23    1
    35    30    23    1
    36    29    33    1
