@<TRIPOS>MOLECULE
*****
 38 42 0 0 0
SMALL
GASTEIGER

@<TRIPOS>ATOM
      1 C          60.6065   87.8812    8.6025 C.ar    1  UNL1        0.0222
      2 C          60.1174   87.7881    7.1875 C.ar    1  UNL1        0.0032
      3 C          59.3225   88.9129    6.5932 C.ar    1  UNL1        0.0207
      4 C          59.0168   90.1307    7.4140 C.ar    1  UNL1        0.0990
      5 N          59.5059   90.2237    8.8289 N.ar    1  UNL1       -0.2393
      6 C          60.3008   89.0990    9.4232 C.ar    1  UNL1        0.1346
      7 C          60.7899   89.1920   10.8382 C.2     1  UNL1        0.2668
      8 O          60.0619   88.4691   11.9324 O.2     1  UNL1       -0.2683
      9 N          62.0070   90.0080   11.1589 N.am    1  UNL1       -0.2748
     10 C          62.7349   90.7310   10.0646 C.3     1  UNL1        0.0938
     11 C          63.9520   91.5470   10.3853 C.3     1  UNL1        0.0219
     12 C          64.4411   91.6400   11.8003 C.3     1  UNL1        0.0078
     13 C          63.7131   90.9171   12.8946 C.3     1  UNL1        0.0219
     14 C          62.4960   90.1011   12.5738 C.3     1  UNL1        0.0938
     15 C          65.6582   92.4560   12.1210 C.3     1  UNL1        0.0265
     16 C          66.2450   93.3671   11.0839 C.ar    1  UNL1       -0.0220
     17 C          65.7896   94.7935   10.9945 C.ar    1  UNL1       -0.0020
     18 C          66.3764   95.7045    9.9574 C.ar    1  UNL1        0.0293
     19 C          67.4186   95.1892    9.0097 C.ar    1  UNL1        0.1401
     20 F          68.0054   96.1003    7.9726 F       1  UNL1       -0.2042
     21 C          67.8740   93.7629    9.0991 C.ar    1  UNL1        0.0293
     22 C          67.2872   92.8518   10.1362 C.ar    1  UNL1       -0.0020
     23 C          62.9910   84.5069   10.3854 C.ar    1  UNL1       -0.0061
     24 C          61.9932   85.2465   11.2266 C.ar    1  UNL1       -0.0029
     25 C          61.1983   86.3712   10.6323 C.ar    1  UNL1       -0.0002
     26 C          61.4013   86.7564    9.1968 C.ar    1  UNL1        0.0016
     27 C          62.3991   86.0169    8.3557 C.ar    1  UNL1       -0.0002
     28 C          63.1939   84.8922    8.9500 C.ar    1  UNL1       -0.0029
     29 C          63.7858   83.3822   10.9797 C.3     1  UNL1        0.0992
     30 C          62.7203   83.8182   16.0467 C.3     1  UNL1        0.0186
     31 C          62.8204   82.9783   14.8078 C.3     1  UNL1        0.0702
     32 C          63.2530   83.6001   13.5132 C.3     1  UNL1        0.0882
     33 N          63.3532   82.7603   12.2744 N.3     1  UNL1       -0.2666
     34 C          63.0208   81.2987   12.3302 C.3     1  UNL1        0.0882
     35 C          62.5882   80.6769   13.6249 C.3     1  UNL1        0.0702
     36 C          62.2557   79.2152   13.6808 C.3     1  UNL1        0.0186
     37 N          62.4880   81.5167   14.8637 N.3     1  UNL1       -0.2974
     38 H          63.1121   81.0990   15.5539 H       1  UNL1        0.1232
@<TRIPOS>BOND
     1    31    30    1
     2    31    32    1
     3    32    33    1
     4    33    29    1
     5    29    23    1
     6    23    24   ar
     7    24    25   ar
     8    25    26   ar
     9    26     1    1
    10     1     2   ar
    11     2     3   ar
    12     3     4   ar
    13     4     5   ar
    14     5     6   ar
    15     6     7    1
    16     7     8    2
    17     7     9   am
    18     9    10    1
    19    10    11    1
    20    11    12    1
    21    12    15    1
    22    15    16    1
    23    16    17   ar
    24    17    18   ar
    25    18    19   ar
    26    19    20    1
    27    19    21   ar
    28    21    22   ar
    29    12    13    1
    30    13    14    1
    31    26    27   ar
    32    27    28   ar
    33    33    34    1
    34    34    35    1
    35    35    36    1
    36    35    37    1
    37    37    31    1
    38    28    23   ar
    39     6     1   ar
    40    14     9    1
    41    22    16   ar
    42    37    38    1
@<TRIPOS>MOLECULE
*****
 38 42 0 0 0
SMALL
GASTEIGER

@<TRIPOS>ATOM
      1 C          60.7139   87.8192    8.7575 C.ar    1  UNL1        0.0222
      2 C          60.2157   87.7120    7.3467 C.ar    1  UNL1        0.0032
      3 C          59.3784   88.8105    6.7615 C.ar    1  UNL1        0.0207
      4 C          59.0394   90.0161    7.5872 C.ar    1  UNL1        0.0990
      5 N          59.5376   90.1232    8.9980 N.ar    1  UNL1       -0.2393
      6 C          60.3749   89.0247    9.5831 C.ar    1  UNL1        0.1346
      7 C          60.8731   89.1318   10.9939 C.2     1  UNL1        0.2668
      8 O          60.1637   88.4039   12.0971 O.2     1  UNL1       -0.2683
      9 N          62.0806   89.9668   11.3016 N.am    1  UNL1       -0.2748
     10 C          62.7899   90.6947   10.1984 C.3     1  UNL1        0.0938
     11 C          63.9975   91.5297   10.5060 C.3     1  UNL1        0.0219
     12 C          64.4957   91.6368   11.9168 C.3     1  UNL1        0.0078
     13 C          63.7863   90.9089   13.0200 C.3     1  UNL1        0.0219
     14 C          62.5787   90.0739   12.7123 C.3     1  UNL1        0.0938
     15 C          65.7032   92.4718   12.2244 C.3     1  UNL1        0.0265
     16 C          66.2855   93.3656   11.1699 C.ar    1  UNL1       -0.0220
     17 C          67.2913   92.8229   10.1985 C.ar    1  UNL1       -0.0020
     18 C          67.8736   93.7167    9.1439 C.ar    1  UNL1        0.0293
     19 C          67.4500   95.1532    9.0608 C.ar    1  UNL1        0.1401
     20 F          68.0322   96.0470    8.0062 F       1  UNL1       -0.2042
     21 C          66.4441   95.6959   10.0322 C.ar    1  UNL1        0.0293
     22 C          65.8618   94.8021   11.0867 C.ar    1  UNL1       -0.0020
     23 C          63.2257   84.5238   10.5129 C.ar    1  UNL1       -0.0061
     24 C          62.2425   85.2581   11.3756 C.ar    1  UNL1       -0.0029
     25 C          61.4052   86.3566   10.7905 C.ar    1  UNL1       -0.0002
     26 C          61.5511   86.7207    9.3426 C.ar    1  UNL1        0.0016
     27 C          62.5343   85.9864    8.4800 C.ar    1  UNL1       -0.0002
     28 C          63.3715   84.8879    9.0651 C.ar    1  UNL1       -0.0029
     29 C          64.0629   83.4253   11.0980 C.3     1  UNL1        0.0992
     30 C          62.8955   78.4912    9.9612 C.3     1  UNL1        0.0186
     31 C          62.8451   79.6529   10.9089 C.3     1  UNL1        0.0702
     32 C          63.4792   80.9582   10.5296 C.3     1  UNL1        0.0882
     33 N          63.4288   82.1199   11.4773 N.3     1  UNL1       -0.2666
     34 C          62.7443   81.9761   12.8042 C.3     1  UNL1        0.0882
     35 C          62.1102   80.6707   13.1835 C.3     1  UNL1        0.0702
     36 C          61.4257   80.5269   14.5105 C.3     1  UNL1        0.0186
     37 N          62.1606   79.5091   12.2358 N.3     1  UNL1       -0.2974
     38 H          61.1946   79.2453   12.0417 H       1  UNL1        0.1232
@<TRIPOS>BOND
     1    31    30    1
     2    31    32    1
     3    32    33    1
     4    33    29    1
     5    29    23    1
     6    23    24   ar
     7    24    25   ar
     8    25    26   ar
     9    26     1    1
    10     1     2   ar
    11     2     3   ar
    12     3     4   ar
    13     4     5   ar
    14     5     6   ar
    15     6     7    1
    16     7     8    2
    17     7     9   am
    18     9    10    1
    19    10    11    1
    20    11    12    1
    21    12    15    1
    22    15    16    1
    23    16    17   ar
    24    17    18   ar
    25    18    19   ar
    26    19    20    1
    27    19    21   ar
    28    21    22   ar
    29    12    13    1
    30    13    14    1
    31    26    27   ar
    32    27    28   ar
    33    33    34    1
    34    34    35    1
    35    35    36    1
    36    35    37    1
    37    37    31    1
    38    28    23   ar
    39     6     1   ar
    40    14     9    1
    41    22    16   ar
    42    37    38    1
@<TRIPOS>MOLECULE
*****
 38 42 0 0 0
SMALL
GASTEIGER

@<TRIPOS>ATOM
      1 C          64.7343   91.1747   13.2214 C.ar    1  UNL1        0.0222
      2 C          65.6980   91.8484   12.2901 C.ar    1  UNL1        0.0032
      3 C          66.8753   92.5967   12.8417 C.ar    1  UNL1        0.0207
      4 C          67.0887   92.6711   14.3247 C.ar    1  UNL1        0.0990
      5 N          66.1249   91.9974   15.2559 N.ar    1  UNL1       -0.2393
      6 C          64.9477   91.2492   14.7042 C.ar    1  UNL1        0.1346
      7 C          63.9839   90.5754   15.6355 C.2     1  UNL1        0.2668
      8 O          63.0631   91.3989   16.4864 O.2     1  UNL1       -0.2683
      9 N          63.9410   89.0782   15.7159 N.am    1  UNL1       -0.2748
     10 C          64.8617   88.2547   14.8651 C.3     1  UNL1        0.0938
     11 C          64.8188   86.7575   14.9454 C.3     1  UNL1        0.0219
     12 C          63.8550   86.0837   15.8767 C.3     1  UNL1        0.0078
     13 C          62.9342   86.9072   16.7276 C.3     1  UNL1        0.0219
     14 C          62.9772   88.4045   16.6472 C.3     1  UNL1        0.0938
     15 C          63.8120   84.5865   15.9571 C.3     1  UNL1        0.0265
     16 C          63.5705   83.7756   14.7186 C.ar    1  UNL1       -0.0220
     17 C          64.5162   83.8779   13.5588 C.ar    1  UNL1       -0.0020
     18 C          64.2746   83.0669   12.3203 C.ar    1  UNL1        0.0293
     19 C          63.0874   82.1536   12.2415 C.ar    1  UNL1        0.1401
     20 F          62.8458   81.3426   11.0030 F       1  UNL1       -0.2042
     21 C          62.1417   82.0512   13.4013 C.ar    1  UNL1        0.0293
     22 C          62.3833   82.8622   14.6398 C.ar    1  UNL1       -0.0020
     23 C          61.2026   88.9299   11.5665 C.ar    1  UNL1       -0.0061
     24 C          62.4760   88.2006   11.8777 C.ar    1  UNL1       -0.0029
     25 C          63.6532   88.9489   12.4293 C.ar    1  UNL1       -0.0002
     26 C          63.5570   90.4264   12.6698 C.ar    1  UNL1        0.0016
     27 C          62.2837   91.1556   12.3586 C.ar    1  UNL1       -0.0002
     28 C          61.1065   90.4074   11.8070 C.ar    1  UNL1       -0.0029
     29 C          60.0254   88.1817   11.0149 C.3     1  UNL1        0.0992
     30 C          58.9566   89.8766    6.2206 C.3     1  UNL1        0.0186
     31 C          59.3879   88.7751    7.1430 C.3     1  UNL1        0.0702
     32 C          59.4910   89.0291    8.6177 C.3     1  UNL1        0.0882
     33 N          59.9223   87.9276    9.5401 N.3     1  UNL1       -0.2666
     34 C          60.2504   86.5722    8.9878 C.3     1  UNL1        0.0882
     35 C          60.1473   86.3182    7.5131 C.3     1  UNL1        0.0702
     36 C          60.4754   84.9627    6.9607 C.3     1  UNL1        0.0186
     37 N          59.7160   87.4197    6.5907 N.3     1  UNL1       -0.2974
     38 H          58.8811   87.0888    6.1071 H       1  UNL1        0.1232
@<TRIPOS>BOND
     1    31    30    1
     2    31    32    1
     3    32    33    1
     4    33    29    1
     5    29    23    1
     6    23    24   ar
     7    24    25   ar
     8    25    26   ar
     9    26     1    1
    10     1     2   ar
    11     2     3   ar
    12     3     4   ar
    13     4     5   ar
    14     5     6   ar
    15     6     7    1
    16     7     8    2
    17     7     9   am
    18     9    10    1
    19    10    11    1
    20    11    12    1
    21    12    15    1
    22    15    16    1
    23    16    17   ar
    24    17    18   ar
    25    18    19   ar
    26    19    20    1
    27    19    21   ar
    28    21    22   ar
    29    12    13    1
    30    13    14    1
    31    26    27   ar
    32    27    28   ar
    33    33    34    1
    34    34    35    1
    35    35    36    1
    36    35    37    1
    37    37    31    1
    38    28    23   ar
    39     6     1   ar
    40    14     9    1
    41    22    16   ar
    42    37    38    1
