@<TRIPOS>MOLECULE
*****
 31 33 0 0 0
SMALL
GASTEIGER

@<TRIPOS>ATOM
      1 C          62.8546   89.3891   11.9435 C.ar    1  UNL1        0.0576
      2 C          63.8086   89.5492   13.0900 C.ar    1  UNL1        0.0462
      3 C          64.7628   90.7062   13.1157 C.ar    1  UNL1        0.1602
      4 F          65.7168   90.8663   14.2622 F       1  UNL1       -0.2027
      5 C          64.7632   91.7031   11.9949 C.ar    1  UNL1        0.1534
      6 C          63.8094   91.5431   10.8485 C.ar    1  UNL1        0.0351
      7 C          62.8550   90.3861   10.8227 C.ar    1  UNL1        0.0722
      8 CL         61.9011   90.2260    9.6763 Cl      1  UNL1       -0.0809
      9 S          65.7176   92.8601   12.0207 S.O2    1  UNL1        0.0772
     10 O          65.3206   93.1561   13.4366 O.2     1  UNL1       -0.1498
     11 O          66.1146   92.5642   10.6048 O.2     1  UNL1       -0.1498
     12 N          66.6719   94.0171   12.0465 N.pl3   1  UNL1       -0.1936
     13 H          67.2847   94.1328   12.8082 H       1  UNL1        0.1758
     14 C          66.6925   94.9977   10.9116 C.ar    1  UNL1        0.1786
     15 N          67.6745   95.0138    9.7780 N.ar    1  UNL1       -0.2214
     16 C          67.3236   96.1604    8.8769 C.ar    1  UNL1        0.1079
     17 C          66.1246   96.8531    9.4537 C.ar    1  UNL1        0.0588
     18 S          65.7345   96.1345   10.7112 S.2     1  UNL1       -0.0497
     19 N          61.9003   88.2322   11.9178 N.pl3   1  UNL1       -0.3332
     20 H          60.9529   88.3703   12.1470 H       1  UNL1        0.1468
     21 C          63.8571   82.7620   10.4182 C.3     1  UNL1        0.0895
     22 N          63.3679   84.1296   10.7931 N.3     1  UNL1       -0.2764
     23 C          63.3251   84.5417   12.2347 C.3     1  UNL1        0.0470
     24 C          63.8645   83.1494   12.3778 C.3     1  UNL1        0.0161
     25 C          63.4697   84.4703   13.7260 C.3     1  UNL1        0.0161
     26 C          62.8359   85.9092   12.6096 C.3     1  UNL1        0.0342
     27 C          62.3895   86.8646   11.5429 C.3     1  UNL1        0.0716
     28 C          62.4323   86.4525   10.1013 C.3     1  UNL1        0.0342
     29 C          62.9215   85.0849    9.7264 C.3     1  UNL1        0.0470
     30 C          62.6070   85.6313    8.3653 C.3     1  UNL1        0.0161
     31 C          63.3014   83.9072    8.8787 C.3     1  UNL1        0.0161
@<TRIPOS>BOND
     1    21    22    1
     2    22    23    1
     3    23    24    1
     4    23    25    1
     5    23    26    1
     6    26    27    1
     7    27    19    1
     8    19     1    1
     9     1     2   ar
    10     2     3   ar
    11     3     4    1
    12     3     5   ar
    13     5     9    1
    14     9    10    2
    15     9    11    2
    16     9    12    1
    17    12    14    1
    18    14    15   ar
    19    15    16   ar
    20    16    17   ar
    21    17    18   ar
    22     5     6   ar
    23     6     7   ar
    24     7     8    1
    25    27    28    1
    26    28    29    1
    27    29    30    1
    28    29    31    1
    29    29    22    1
    30     7     1   ar
    31    18    14   ar
    32    19    20    1
    33    12    13    1
@<TRIPOS>MOLECULE
*****
 31 33 0 0 0
SMALL
GASTEIGER

@<TRIPOS>ATOM
      1 C          62.8594   89.3906   11.9395 C.ar    1  UNL1        0.0576
      2 C          63.8163   89.5561   13.0828 C.ar    1  UNL1        0.0462
      3 C          64.7738   90.7105   13.0983 C.ar    1  UNL1        0.1602
      4 F          65.7307   90.8760   14.2416 F       1  UNL1       -0.2027
      5 C          64.7746   91.6995   11.9706 C.ar    1  UNL1        0.1534
      6 C          63.8178   91.5341   10.8273 C.ar    1  UNL1        0.0351
      7 C          62.8601   90.3796   10.8118 C.ar    1  UNL1        0.0722
      8 CL         61.9033   90.2141    9.6685 Cl      1  UNL1       -0.0809
      9 S          65.7322   92.8540   11.9861 S.O2    1  UNL1        0.0772
     10 O          66.1425   92.5326   10.5796 O.2     1  UNL1       -0.1498
     11 O          65.3219   93.1755   13.3926 O.2     1  UNL1       -0.1498
     12 N          66.6898   94.0085   12.0016 N.pl3   1  UNL1       -0.1936
     13 H          67.3088   94.1244   12.7583 H       1  UNL1        0.1758
     14 C          66.7041   94.9863   10.8642 C.ar    1  UNL1        0.1786
     15 N          67.7282   95.0512    9.7702 N.ar    1  UNL1       -0.2214
     16 C          67.3539   96.1758    8.8510 C.ar    1  UNL1        0.1079
     17 C          66.0984   96.8061    9.3770 C.ar    1  UNL1        0.0588
     18 S          65.6968   96.0709   10.6212 S.2     1  UNL1       -0.0497
     19 N          61.9019   88.2361   11.9240 N.pl3   1  UNL1       -0.3332
     20 H          60.9578   88.3763   12.1655 H       1  UNL1        0.1468
     21 C          63.8252   82.7635   10.3907 C.3     1  UNL1        0.0895
     22 N          63.3444   84.1316   10.7740 N.3     1  UNL1       -0.2764
     23 C          62.8837   85.0887    9.7150 C.3     1  UNL1        0.0470
     24 C          63.2486   83.9110    8.8607 C.3     1  UNL1        0.0161
     25 C          62.5498   85.6368    8.3592 C.3     1  UNL1        0.0161
     26 C          62.4029   86.4569   10.0983 C.3     1  UNL1        0.0342
     27 C          62.3827   86.8679   11.5407 C.3     1  UNL1        0.0716
     28 C          62.8433   85.9108   12.5998 C.3     1  UNL1        0.0342
     29 C          63.3242   84.5427   12.2164 C.3     1  UNL1        0.0470
     30 C          63.4911   84.4698   13.7053 C.3     1  UNL1        0.0161
     31 C          63.8630   83.1492   12.3503 C.3     1  UNL1        0.0161
@<TRIPOS>BOND
     1    21    22    1
     2    22    23    1
     3    23    24    1
     4    23    25    1
     5    23    26    1
     6    26    27    1
     7    27    19    1
     8    19     1    1
     9     1     2   ar
    10     2     3   ar
    11     3     4    1
    12     3     5   ar
    13     5     9    1
    14     9    10    2
    15     9    11    2
    16     9    12    1
    17    12    14    1
    18    14    15   ar
    19    15    16   ar
    20    16    17   ar
    21    17    18   ar
    22     5     6   ar
    23     6     7   ar
    24     7     8    1
    25    27    28    1
    26    28    29    1
    27    29    30    1
    28    29    31    1
    29    29    22    1
    30     7     1   ar
    31    18    14   ar
    32    19    20    1
    33    12    13    1
@<TRIPOS>MOLECULE
*****
 31 33 0 0 0
SMALL
GASTEIGER

@<TRIPOS>ATOM
      1 C          63.0288   89.3477   12.2915 C.ar    1  UNL1        0.0576
      2 C          62.9498   90.2900   11.1270 C.ar    1  UNL1        0.0462
      3 C          63.8729   91.4699   11.0529 C.ar    1  UNL1        0.1602
      4 F          63.7939   92.4121    9.8884 F       1  UNL1       -0.2027
      5 C          64.8751   91.7077   12.1434 C.ar    1  UNL1        0.1534
      6 C          64.9541   90.7656   13.3079 C.ar    1  UNL1        0.0351
      7 C          64.0310   89.5855   13.3819 C.ar    1  UNL1        0.0722
      8 CL         64.1101   88.6434   14.5464 Cl      1  UNL1       -0.0809
      9 S          65.7982   92.8877   12.0693 S.O2    1  UNL1        0.0772
     10 O          65.3256   93.3421   13.4184 O.2     1  UNL1       -0.1498
     11 O          66.2709   92.4334   10.7202 O.2     1  UNL1       -0.1498
     12 N          66.7213   94.0677   11.9953 N.pl3   1  UNL1       -0.1936
     13 H          67.3358   94.2595   12.7402 H       1  UNL1        0.1758
     14 C          66.7082   94.9555   10.7863 C.ar    1  UNL1        0.1786
     15 N          67.7586   95.0040    9.7167 N.ar    1  UNL1       -0.2214
     16 C          67.3420   96.0291    8.7040 C.ar    1  UNL1        0.1079
     17 C          66.0340   96.6142    9.1478 C.ar    1  UNL1        0.0588
     18 S          65.6423   95.9506   10.4348 S.2     1  UNL1       -0.0497
     19 N          62.1057   88.1678   12.3655 N.pl3   1  UNL1       -0.3332
     20 H          61.2126   88.2660   12.7679 H       1  UNL1        0.1468
     21 C          63.8562   82.8493   10.2092 C.3     1  UNL1        0.0895
     22 N          63.4186   84.1789   10.7483 N.3     1  UNL1       -0.2764
     23 C          63.5363   84.4690   12.2152 C.3     1  UNL1        0.0470
     24 C          64.0804   83.0716   12.1816 C.3     1  UNL1        0.0161
     25 C          63.8430   84.2739   13.6705 C.3     1  UNL1        0.0161
     26 C          63.0987   85.7987   12.7543 C.3     1  UNL1        0.0342
     27 C          62.5433   86.8382   11.8264 C.3     1  UNL1        0.0716
     28 C          62.4256   86.5480   10.3595 C.3     1  UNL1        0.0342
     29 C          62.8632   85.2184    9.8204 C.3     1  UNL1        0.0470
     30 C          62.4045   85.8754    8.5524 C.3     1  UNL1        0.0161
     31 C          63.1415   84.1170    8.8409 C.3     1  UNL1        0.0161
@<TRIPOS>BOND
     1    21    22    1
     2    22    23    1
     3    23    24    1
     4    23    25    1
     5    23    26    1
     6    26    27    1
     7    27    19    1
     8    19     1    1
     9     1     2   ar
    10     2     3   ar
    11     3     4    1
    12     3     5   ar
    13     5     9    1
    14     9    10    2
    15     9    11    2
    16     9    12    1
    17    12    14    1
    18    14    15   ar
    19    15    16   ar
    20    16    17   ar
    21    17    18   ar
    22     5     6   ar
    23     6     7   ar
    24     7     8    1
    25    27    28    1
    26    28    29    1
    27    29    30    1
    28    29    31    1
    29    29    22    1
    30     7     1   ar
    31    18    14   ar
    32    19    20    1
    33    12    13    1
@<TRIPOS>MOLECULE
*****
 31 33 0 0 0
SMALL
GASTEIGER

@<TRIPOS>ATOM
      1 C          63.0267   89.3518   12.2722 C.ar    1  UNL1        0.0576
      2 C          62.9447   90.2936   11.1075 C.ar    1  UNL1        0.0462
      3 C          63.8654   91.4754   11.0323 C.ar    1  UNL1        0.1602
      4 F          63.7833   92.4171    9.8676 F       1  UNL1       -0.2027
      5 C          64.8682   91.7154   12.1217 C.ar    1  UNL1        0.1534
      6 C          64.9503   90.7737   13.2863 C.ar    1  UNL1        0.0351
      7 C          64.0295   89.5919   13.3616 C.ar    1  UNL1        0.0722
      8 CL         64.1116   88.6502   14.5262 Cl      1  UNL1       -0.0809
      9 S          65.7889   92.8972   12.0464 S.O2    1  UNL1        0.0772
     10 O          65.3161   93.3515   13.3954 O.2     1  UNL1       -0.1498
     11 O          66.2618   92.4430   10.6973 O.2     1  UNL1       -0.1498
     12 N          66.7096   94.0790   11.9712 N.pl3   1  UNL1       -0.1936
     13 H          67.3208   94.2752   12.7176 H       1  UNL1        0.1758
     14 C          66.6990   94.9619   10.7586 C.ar    1  UNL1        0.1786
     15 N          67.7598   95.0180    9.6996 N.ar    1  UNL1       -0.2214
     16 C          67.3423   96.0345    8.6786 C.ar    1  UNL1        0.1079
     17 C          66.0233   96.6067    9.1067 C.ar    1  UNL1        0.0588
     18 S          65.6258   95.9437   10.3922 S.2     1  UNL1       -0.0497
     19 N          62.1060   88.1701   12.3474 N.pl3   1  UNL1       -0.3332
     20 H          61.2132   88.2666   12.7509 H       1  UNL1        0.1468
     21 C          63.8643   82.8548   10.1896 C.3     1  UNL1        0.0895
     22 N          63.4248   84.1836   10.7291 N.3     1  UNL1       -0.2764
     23 C          62.8686   85.2229    9.8014 C.3     1  UNL1        0.0470
     24 C          63.1488   84.1223    8.8215 C.3     1  UNL1        0.0161
     25 C          62.4097   85.8799    8.5334 C.3     1  UNL1        0.0161
     26 C          62.4290   86.5517   10.3409 C.3     1  UNL1        0.0342
     27 C          62.5456   86.8413   11.8080 C.3     1  UNL1        0.0716
     28 C          63.1018   85.8020   12.7356 C.3     1  UNL1        0.0342
     29 C          63.5413   84.4732   12.1962 C.3     1  UNL1        0.0470
     30 C          63.8475   84.2777   13.6515 C.3     1  UNL1        0.0161
     31 C          64.0873   83.0765   12.1622 C.3     1  UNL1        0.0161
@<TRIPOS>BOND
     1    21    22    1
     2    22    23    1
     3    23    24    1
     4    23    25    1
     5    23    26    1
     6    26    27    1
     7    27    19    1
     8    19     1    1
     9     1     2   ar
    10     2     3   ar
    11     3     4    1
    12     3     5   ar
    13     5     9    1
    14     9    10    2
    15     9    11    2
    16     9    12    1
    17    12    14    1
    18    14    15   ar
    19    15    16   ar
    20    16    17   ar
    21    17    18   ar
    22     5     6   ar
    23     6     7   ar
    24     7     8    1
    25    27    28    1
    26    28    29    1
    27    29    30    1
    28    29    31    1
    29    29    22    1
    30     7     1   ar
    31    18    14   ar
    32    19    20    1
    33    12    13    1
@<TRIPOS>MOLECULE
*****
 31 33 0 0 0
SMALL
GASTEIGER

@<TRIPOS>ATOM
      1 C          62.4734   88.3001   11.7629 C.ar    1  UNL1        0.0576
      2 C          63.3988   88.3122   12.9434 C.ar    1  UNL1        0.0462
      3 C          64.2090   89.5371   13.2487 C.ar    1  UNL1        0.1602
      4 F          65.1344   89.5492   14.4292 F       1  UNL1       -0.2027
      5 C          64.0938   90.7499   12.3736 C.ar    1  UNL1        0.1534
      6 C          63.1684   90.7378   11.1931 C.ar    1  UNL1        0.0351
      7 C          62.3582   89.5129   10.8877 C.ar    1  UNL1        0.0722
      8 CL         61.4328   89.5008    9.7073 Cl      1  UNL1       -0.0809
      9 S          64.9040   91.9748   12.6790 S.O2    1  UNL1        0.0772
     10 O          65.3719   92.0204   11.2546 O.2     1  UNL1       -0.1498
     11 O          64.4361   91.9292   14.1034 O.2     1  UNL1       -0.1498
     12 N          65.7142   93.1997   12.9843 N.pl3   1  UNL1       -0.1936
     13 H          65.4766   94.0621   12.5733 H       1  UNL1        0.1758
     14 C          66.8865   93.1105   13.9158 C.ar    1  UNL1        0.1786
     15 N          67.2175   94.0797   15.0117 N.ar    1  UNL1       -0.2214
     16 C          68.4691   93.6046   15.6883 C.ar    1  UNL1        0.1079
     17 C          68.9117   92.3417   15.0105 C.ar    1  UNL1        0.0588
     18 S          67.9335   92.0363   13.9151 S.2     1  UNL1       -0.0497
     19 N          61.6632   87.0752   11.4575 N.pl3   1  UNL1       -0.3332
     20 H          60.7508   87.1653   11.0990 H       1  UNL1        0.1468
     21 C          63.9833   81.6266   12.4214 C.3     1  UNL1        0.0895
     22 N          63.4033   82.9887   12.1804 N.3     1  UNL1       -0.2764
     23 C          63.4515   83.5924   10.8081 C.3     1  UNL1        0.0470
     24 C          64.1301   82.2818   10.5401 C.3     1  UNL1        0.0161
     25 C          63.7353   83.7409    9.3428 C.3     1  UNL1        0.0161
     26 C          62.8714   84.9545   10.5672 C.3     1  UNL1        0.0342
     27 C          62.2432   85.7131   11.6985 C.3     1  UNL1        0.0716
     28 C          62.1951   85.1094   13.0708 C.3     1  UNL1        0.0342
     29 C          62.7751   83.7473   13.3118 C.3     1  UNL1        0.0470
     30 C          62.2898   84.0719   14.6935 C.3     1  UNL1        0.0161
     31 C          63.1865   82.4979   14.0327 C.3     1  UNL1        0.0161
@<TRIPOS>BOND
     1    21    22    1
     2    22    23    1
     3    23    24    1
     4    23    25    1
     5    23    26    1
     6    26    27    1
     7    27    19    1
     8    19     1    1
     9     1     2   ar
    10     2     3   ar
    11     3     4    1
    12     3     5   ar
    13     5     9    1
    14     9    10    2
    15     9    11    2
    16     9    12    1
    17    12    14    1
    18    14    15   ar
    19    15    16   ar
    20    16    17   ar
    21    17    18   ar
    22     5     6   ar
    23     6     7   ar
    24     7     8    1
    25    27    28    1
    26    28    29    1
    27    29    30    1
    28    29    31    1
    29    29    22    1
    30     7     1   ar
    31    18    14   ar
    32    19    20    1
    33    12    13    1
@<TRIPOS>MOLECULE
*****
 31 33 0 0 0
SMALL
GASTEIGER

@<TRIPOS>ATOM
      1 C          62.4891   88.2955   11.7744 C.ar    1  UNL1        0.0576
      2 C          63.4123   88.3190   12.9564 C.ar    1  UNL1        0.0462
      3 C          64.2276   89.5440   13.2471 C.ar    1  UNL1        0.1602
      4 F          65.1508   89.5674   14.4292 F       1  UNL1       -0.2027
      5 C          64.1198   90.7456   12.3558 C.ar    1  UNL1        0.1534
      6 C          63.1967   90.7222   11.1738 C.ar    1  UNL1        0.0351
      7 C          62.3813   89.4972   10.8830 C.ar    1  UNL1        0.0722
      8 CL         61.4581   89.4738    9.7010 Cl      1  UNL1       -0.0809
      9 S          64.9352   91.9707   12.6465 S.O2    1  UNL1        0.0772
     10 O          65.4185   91.9859   11.2267 O.2     1  UNL1       -0.1498
     11 O          64.4519   91.9554   14.0664 O.2     1  UNL1       -0.1498
     12 N          65.7506   93.1957   12.9372 N.pl3   1  UNL1       -0.1936
     13 H          65.5336   94.0479   12.4946 H       1  UNL1        0.1758
     14 C          66.8965   93.1222   13.9022 C.ar    1  UNL1        0.1786
     15 N          67.1694   94.0827   15.0216 N.ar    1  UNL1       -0.2214
     16 C          68.4124   93.6295   15.7285 C.ar    1  UNL1        0.1079
     17 C          68.9077   92.3889   15.0460 C.ar    1  UNL1        0.0588
     18 S          67.9708   92.0754   13.9173 S.2     1  UNL1       -0.0497
     19 N          61.6738   87.0705   11.4837 N.pl3   1  UNL1       -0.3332
     20 H          60.7545   87.1605   11.1429 H       1  UNL1        0.1468
     21 C          64.0148   81.6222   12.3975 C.3     1  UNL1        0.0895
     22 N          63.4295   82.9843   12.1691 N.3     1  UNL1       -0.2764
     23 C          62.8085   83.7347   13.3097 C.3     1  UNL1        0.0470
     24 C          63.2287   82.4822   14.0201 C.3     1  UNL1        0.0161
     25 C          62.3334   84.0501   14.6971 C.3     1  UNL1        0.0161
     26 C          62.2233   85.0968   13.0813 C.3     1  UNL1        0.0342
     27 C          62.2590   85.7084   11.7121 C.3     1  UNL1        0.0716
     28 C          62.8801   84.9580   10.5715 C.3     1  UNL1        0.0342
     29 C          63.4653   83.5959   10.7999 C.3     1  UNL1        0.0470
     30 C          63.7371   83.7536    9.3332 C.3     1  UNL1        0.0161
     31 C          64.1450   82.2886   10.5189 C.3     1  UNL1        0.0161
@<TRIPOS>BOND
     1    21    22    1
     2    22    23    1
     3    23    24    1
     4    23    25    1
     5    23    26    1
     6    26    27    1
     7    27    19    1
     8    19     1    1
     9     1     2   ar
    10     2     3   ar
    11     3     4    1
    12     3     5   ar
    13     5     9    1
    14     9    10    2
    15     9    11    2
    16     9    12    1
    17    12    14    1
    18    14    15   ar
    19    15    16   ar
    20    16    17   ar
    21    17    18   ar
    22     5     6   ar
    23     6     7   ar
    24     7     8    1
    25    27    28    1
    26    28    29    1
    27    29    30    1
    28    29    31    1
    29    29    22    1
    30     7     1   ar
    31    18    14   ar
    32    19    20    1
    33    12    13    1
@<TRIPOS>MOLECULE
*****
 31 33 0 0 0
SMALL
GASTEIGER

@<TRIPOS>ATOM
      1 C          62.8931   89.3559   12.0067 C.ar    1  UNL1        0.0576
      2 C          62.8575   90.3665   10.8988 C.ar    1  UNL1        0.0462
      3 C          63.8123   91.5232   10.9078 C.ar    1  UNL1        0.1602
      4 F          63.7766   92.5338    9.7998 F       1  UNL1       -0.2027
      5 C          64.8029   91.6695   12.0246 C.ar    1  UNL1        0.1534
      6 C          64.8386   90.6589   13.1325 C.ar    1  UNL1        0.0351
      7 C          63.8837   89.5021   13.1236 C.ar    1  UNL1        0.0722
      8 CL         63.9194   88.4916   14.2315 Cl      1  UNL1       -0.0809
      9 S          65.7577   92.8263   12.0336 S.O2    1  UNL1        0.0772
     10 O          65.2991   93.1941   13.4135 O.2     1  UNL1       -0.1498
     11 O          66.2163   92.4585   10.6536 O.2     1  UNL1       -0.1498
     12 N          66.7125   93.9831   12.0425 N.pl3   1  UNL1       -0.1936
     13 H          67.3392   94.0983   12.7931 H       1  UNL1        0.1758
     14 C          66.7126   94.9643   10.9080 C.ar    1  UNL1        0.1786
     15 N          67.7374   95.0495    9.8161 N.ar    1  UNL1       -0.2214
     16 C          67.3460   96.1705    8.8995 C.ar    1  UNL1        0.1079
     17 C          66.0792   96.7781    9.4249 C.ar    1  UNL1        0.0588
     18 S          65.6877   96.0326   10.6662 S.2     1  UNL1       -0.0497
     19 N          61.9383   88.1991   11.9978 N.pl3   1  UNL1       -0.3332
     20 H          61.4981   87.9177   12.8322 H       1  UNL1        0.1468
     21 C          60.8016   85.2870    6.8765 C.3     1  UNL1        0.0895
     22 N          61.0858   86.0150    8.1568 N.3     1  UNL1       -0.2764
     23 C          60.2115   87.1582    8.5795 C.3     1  UNL1        0.0470
     24 C          59.5430   86.7818    7.2906 C.3     1  UNL1        0.0161
     25 C          59.1050   88.1706    8.5546 C.3     1  UNL1        0.0161
     26 C          60.4956   87.8862    9.8598 C.3     1  UNL1        0.0342
     27 C          61.6541   87.4711   10.7174 C.3     1  UNL1        0.0716
     28 C          62.5284   86.3279   10.2947 C.3     1  UNL1        0.0342
     29 C          62.2442   85.5999    9.0144 C.3     1  UNL1        0.0470
     30 C          63.4494   84.8403    9.4840 C.3     1  UNL1        0.0161
     31 C          62.3787   84.6080    7.8972 C.3     1  UNL1        0.0161
@<TRIPOS>BOND
     1    21    22    1
     2    22    23    1
     3    23    24    1
     4    23    25    1
     5    23    26    1
     6    26    27    1
     7    27    19    1
     8    19     1    1
     9     1     2   ar
    10     2     3   ar
    11     3     4    1
    12     3     5   ar
    13     5     9    1
    14     9    10    2
    15     9    11    2
    16     9    12    1
    17    12    14    1
    18    14    15   ar
    19    15    16   ar
    20    16    17   ar
    21    17    18   ar
    22     5     6   ar
    23     6     7   ar
    24     7     8    1
    25    27    28    1
    26    28    29    1
    27    29    30    1
    28    29    31    1
    29    29    22    1
    30     7     1   ar
    31    18    14   ar
    32    19    20    1
    33    12    13    1
@<TRIPOS>MOLECULE
*****
 31 33 0 0 0
SMALL
GASTEIGER

@<TRIPOS>ATOM
      1 C          62.8955   89.3727   12.0182 C.ar    1  UNL1        0.0576
      2 C          62.8768   90.3652   10.8935 C.ar    1  UNL1        0.0462
      3 C          63.8373   91.5173   10.8939 C.ar    1  UNL1        0.1602
      4 F          63.8185   92.5097    9.7692 F       1  UNL1       -0.2027
      5 C          64.8166   91.6770   12.0188 C.ar    1  UNL1        0.1534
      6 C          64.8354   90.6846   13.1434 C.ar    1  UNL1        0.0351
      7 C          63.8749   89.5324   13.1431 C.ar    1  UNL1        0.0722
      8 CL         63.8937   88.5400   14.2677 Cl      1  UNL1       -0.0809
      9 S          65.7772   92.8291   12.0190 S.O2    1  UNL1        0.0772
     10 O          65.3221   93.2081   13.3971 O.2     1  UNL1       -0.1498
     11 O          66.2323   92.4501   10.6410 O.2     1  UNL1       -0.1498
     12 N          66.7377   93.9812   12.0194 N.pl3   1  UNL1       -0.1936
     13 H          67.3832   94.0838   12.7556 H       1  UNL1        0.1758
     14 C          66.7147   94.9771   10.8979 C.ar    1  UNL1        0.1786
     15 N          67.7190   95.0789    9.7885 N.ar    1  UNL1       -0.2214
     16 C          67.3083   96.2108    8.8939 C.ar    1  UNL1        0.1079
     17 C          66.0502   96.8085    9.4505 C.ar    1  UNL1        0.0588
     18 S          65.6833   96.0461   10.6891 S.2     1  UNL1       -0.0497
     19 N          61.9350   88.2206   12.0179 N.pl3   1  UNL1       -0.3332
     20 H          61.5015   87.9409   12.8564 H       1  UNL1        0.1468
     21 C          60.7348   85.3168    6.9064 C.3     1  UNL1        0.0895
     22 N          61.0348   86.0427    8.1843 N.3     1  UNL1       -0.2764
     23 C          62.2291   85.6547    9.0047 C.3     1  UNL1        0.0470
     24 C          62.3596   84.6758    7.8756 C.3     1  UNL1        0.0161
     25 C          63.4686   84.9266    9.4330 C.3     1  UNL1        0.0161
     26 C          62.5291   86.3806   10.2825 C.3     1  UNL1        0.0342
     27 C          61.6350   87.4947   10.7400 C.3     1  UNL1        0.0716
     28 C          60.4407   87.8827    9.9196 C.3     1  UNL1        0.0342
     29 C          60.1407   87.1568    8.6417 C.3     1  UNL1        0.0470
     30 C          59.0053   88.1370    8.6572 C.3     1  UNL1        0.0161
     31 C          59.4462   86.7713    7.3693 C.3     1  UNL1        0.0161
@<TRIPOS>BOND
     1    21    22    1
     2    22    23    1
     3    23    24    1
     4    23    25    1
     5    23    26    1
     6    26    27    1
     7    27    19    1
     8    19     1    1
     9     1     2   ar
    10     2     3   ar
    11     3     4    1
    12     3     5   ar
    13     5     9    1
    14     9    10    2
    15     9    11    2
    16     9    12    1
    17    12    14    1
    18    14    15   ar
    19    15    16   ar
    20    16    17   ar
    21    17    18   ar
    22     5     6   ar
    23     6     7   ar
    24     7     8    1
    25    27    28    1
    26    28    29    1
    27    29    30    1
    28    29    31    1
    29    29    22    1
    30     7     1   ar
    31    18    14   ar
    32    19    20    1
    33    12    13    1
@<TRIPOS>MOLECULE
*****
 31 33 0 0 0
SMALL
GASTEIGER

@<TRIPOS>ATOM
      1 C          62.3632   86.2142   10.4346 C.ar    1  UNL1        0.0576
      2 C          61.4141   87.2201   11.0157 C.ar    1  UNL1        0.0462
      3 C          60.4174   87.9089   10.1315 C.ar    1  UNL1        0.1602
      4 F          59.4683   88.9148   10.7125 F       1  UNL1       -0.2027
      5 C          60.3696   87.5919    8.6661 C.ar    1  UNL1        0.1534
      6 C          61.3186   86.5861    8.0850 C.ar    1  UNL1        0.0351
      7 C          62.3154   85.8972    8.9693 C.ar    1  UNL1        0.0722
      8 CL         63.2644   84.8914    8.3882 Cl      1  UNL1       -0.0809
      9 S          59.3728   88.2808    7.7818 S.O2    1  UNL1        0.0772
     10 O          60.0337   89.5977    8.0627 O.2     1  UNL1       -0.1498
     11 O          58.7118   86.9640    7.5009 O.2     1  UNL1       -0.1498
     12 N          58.3760   88.9697    6.8976 N.pl3   1  UNL1       -0.1936
     13 H          57.4278   88.7067    6.9266 H       1  UNL1        0.1758
     14 C          58.8241   90.0594    5.9693 C.ar    1  UNL1        0.1786
     15 N          60.2236   90.2768    5.4754 N.ar    1  UNL1       -0.2214
     16 C          60.2158   91.4748    4.5728 C.ar    1  UNL1        0.1079
     17 C          58.8113   91.9979    4.5089 C.ar    1  UNL1        0.0588
     18 S          57.9513   91.1231    5.3720 S.2     1  UNL1       -0.0497
     19 N          63.3599   85.5254   11.3189 N.pl3   1  UNL1       -0.3332
     20 H          64.2088   85.9705   11.5437 H       1  UNL1        0.1468
     21 C          62.1735   80.0576   13.4859 C.3     1  UNL1        0.0895
     22 N          62.4701   81.4246   12.9441 N.3     1  UNL1       -0.2764
     23 C          62.9754   81.5817   11.5406 C.3     1  UNL1        0.0470
     24 C          62.8377   80.0893   11.6023 C.3     1  UNL1        0.0161
     25 C          63.4328   81.2205   10.1585 C.3     1  UNL1        0.0161
     26 C          63.2720   82.9486   10.9989 C.3     1  UNL1        0.0342
     27 C          63.0633   84.1585   11.8606 C.3     1  UNL1        0.0716
     28 C          62.5581   84.0013   13.2642 C.3     1  UNL1        0.0342
     29 C          62.2615   82.6344   13.8059 C.3     1  UNL1        0.0470
     30 C          61.9070   83.4703   14.9999 C.3     1  UNL1        0.0161
     31 C          61.8418   81.5578   14.7624 C.3     1  UNL1        0.0161
@<TRIPOS>BOND
     1    21    22    1
     2    22    23    1
     3    23    24    1
     4    23    25    1
     5    23    26    1
     6    26    27    1
     7    27    19    1
     8    19     1    1
     9     1     2   ar
    10     2     3   ar
    11     3     4    1
    12     3     5   ar
    13     5     9    1
    14     9    10    2
    15     9    11    2
    16     9    12    1
    17    12    14    1
    18    14    15   ar
    19    15    16   ar
    20    16    17   ar
    21    17    18   ar
    22     5     6   ar
    23     6     7   ar
    24     7     8    1
    25    27    28    1
    26    28    29    1
    27    29    30    1
    28    29    31    1
    29    29    22    1
    30     7     1   ar
    31    18    14   ar
    32    19    20    1
    33    12    13    1
