@<TRIPOS>MOLECULE
*****
 24 26 0 0 0
SMALL
GASTEIGER

@<TRIPOS>ATOM
      1 C          63.5210   85.8987   15.9816 C.3     1  UNL1        0.0838
      2 C          63.0192   86.9963   16.8722 C.3     1  UNL1        0.0437
      3 C          63.4418   88.3065   16.2766 C.ar    1  UNL1       -0.0247
      4 C          63.2304   89.7244   16.7178 C.ar    1  UNL1       -0.0045
      5 C          63.7822   90.8544   15.9001 C.ar    1  UNL1        0.0012
      6 C          64.5453   90.5665   14.6413 C.ar    1  UNL1        0.0173
      7 C          64.7567   89.1486   14.2001 C.ar    1  UNL1       -0.0030
      8 C          64.2050   88.0186   15.0177 C.ar    1  UNL1       -0.0246
      9 C          64.2539   86.5305   14.8354 C.3     1  UNL1        0.0438
     10 C          65.0971   91.6966   13.8236 C.ar    1  UNL1        0.0815
     11 C          64.8251   91.7586   12.3498 C.ar    1  UNL1        0.0215
     12 C          65.3768   92.8887   11.5322 C.ar    1  UNL1        0.0328
     13 C          66.2006   93.9568   12.1884 C.ar    1  UNL1        0.1592
     14 F          66.7523   95.0869   11.3708 F       1  UNL1       -0.2025
     15 C          66.4725   93.8948   13.6623 C.ar    1  UNL1        0.1283
     16 N          65.9208   92.7647   14.4799 N.ar    1  UNL1       -0.2415
     17 N          63.3245   84.4276   16.1989 N.3     1  UNL1       -0.1841
     18 H          64.2176   84.0558   16.5223 H       1  UNL1        0.1484
     19 S          62.8778   83.5548   15.0637 S.O2    1  UNL1        0.0390
     20 O          61.6716   84.4250   14.8694 O.2     1  UNL1       -0.1576
     21 O          64.0840   82.6847   15.2580 O.2     1  UNL1       -0.1576
     22 C          61.6542   81.4293   14.2063 C.3     1  UNL1        0.0270
     23 C          62.4310   82.6820   13.9285 C.3     1  UNL1        0.1457
     24 C          62.7611   83.0620   12.5155 C.3     1  UNL1        0.0270
@<TRIPOS>BOND
     1    22    23    1
     2    23    24    1
     3    23    19    1
     4    19    20    2
     5    19    21    2
     6    19    17    1
     7    17     1    1
     8     1     2    1
     9     2     3    1
    10     3     4   ar
    11     4     5   ar
    12     5     6   ar
    13     6    10    1
    14    10    11   ar
    15    11    12   ar
    16    12    13   ar
    17    13    14    1
    18    13    15   ar
    19    15    16   ar
    20     6     7   ar
    21     7     8   ar
    22     8     9    1
    23     9     1    1
    24     8     3   ar
    25    16    10   ar
    26    17    18    1
@<TRIPOS>MOLECULE
*****
 24 26 0 0 0
SMALL
GASTEIGER

@<TRIPOS>ATOM
      1 C          63.8311   90.4475   13.0813 C.3     1  UNL1        0.0838
      2 C          63.0475   90.1239   11.8439 C.3     1  UNL1        0.0437
      3 C          62.8550   88.6372   11.7925 C.ar    1  UNL1       -0.0247
      4 C          62.1605   87.7487   10.8035 C.ar    1  UNL1       -0.0045
      5 C          62.1306   86.2647   11.0204 C.ar    1  UNL1        0.0012
      6 C          62.7953   85.6694   12.2261 C.ar    1  UNL1        0.0173
      7 C          63.4898   86.5580   13.2150 C.ar    1  UNL1       -0.0030
      8 C          63.5197   88.0419   12.9982 C.ar    1  UNL1       -0.0246
      9 C          64.1229   89.1607   13.7947 C.3     1  UNL1        0.0438
     10 C          62.7654   84.1854   12.4428 C.ar    1  UNL1        0.0815
     11 C          63.0756   83.2552   11.3078 C.ar    1  UNL1        0.0215
     12 C          63.0457   81.7712   11.5245 C.ar    1  UNL1        0.0328
     13 C          62.7055   81.2175   12.8764 C.ar    1  UNL1        0.1592
     14 F          62.6756   79.7336   13.0933 F       1  UNL1       -0.2025
     15 C          62.3953   82.1477   14.0116 C.ar    1  UNL1        0.1283
     16 N          62.4252   83.6316   13.7948 N.ar    1  UNL1       -0.2415
     17 N          64.2493   91.8173   13.5271 N.3     1  UNL1       -0.1841
     18 H          64.1967   92.4224   12.7077 H       1  UNL1        0.1484
     19 S          65.6049   92.0271   14.1340 S.O2    1  UNL1        0.0390
     20 O          64.9836   92.0971   15.4975 O.2     1  UNL1       -0.1576
     21 O          66.2262   91.9571   12.7706 O.2     1  UNL1       -0.1576
     22 C          68.1938   91.8985   13.9572 C.3     1  UNL1        0.0270
     23 C          66.9605   92.2370   14.7410 C.3     1  UNL1        0.1457
     24 C          67.0827   92.7854   16.1318 C.3     1  UNL1        0.0270
@<TRIPOS>BOND
     1    22    23    1
     2    23    24    1
     3    23    19    1
     4    19    20    2
     5    19    21    2
     6    19    17    1
     7    17     1    1
     8     1     2    1
     9     2     3    1
    10     3     4   ar
    11     4     5   ar
    12     5     6   ar
    13     6    10    1
    14    10    11   ar
    15    11    12   ar
    16    12    13   ar
    17    13    14    1
    18    13    15   ar
    19    15    16   ar
    20     6     7   ar
    21     7     8   ar
    22     8     9    1
    23     9     1    1
    24     8     3   ar
    25    16    10   ar
    26    17    18    1
@<TRIPOS>MOLECULE
*****
 24 26 0 0 0
SMALL
GASTEIGER

@<TRIPOS>ATOM
      1 C          61.4585   89.7347   11.0061 C.3     1  UNL1        0.0838
      2 C          62.2157   90.6608   10.1012 C.3     1  UNL1        0.0437
      3 C          63.3965   91.1885   10.8608 C.ar    1  UNL1       -0.0247
      4 C          64.4932   92.1378   10.4786 C.ar    1  UNL1       -0.0045
      5 C          65.5625   92.4871   11.4708 C.ar    1  UNL1        0.0012
      6 C          65.5351   91.8871   12.8453 C.ar    1  UNL1        0.0173
      7 C          64.4385   90.9377   13.2275 C.ar    1  UNL1       -0.0030
      8 C          63.3692   90.5885   12.2353 C.ar    1  UNL1       -0.0246
      9 C          62.1714   89.6900   12.3251 C.3     1  UNL1        0.0438
     10 C          66.6045   92.2364   13.8375 C.ar    1  UNL1        0.0815
     11 C          66.2297   92.6485   15.2302 C.ar    1  UNL1        0.0215
     12 C          67.2991   92.9978   16.2225 C.ar    1  UNL1        0.0328
     13 C          68.7432   92.9350   15.8219 C.ar    1  UNL1        0.1592
     14 F          69.8126   93.2843   16.8141 F       1  UNL1       -0.2025
     15 C          69.1180   92.5228   14.4292 C.ar    1  UNL1        0.1283
     16 N          68.0487   92.1735   13.4370 N.ar    1  UNL1       -0.2415
     17 N          60.2080   88.9849   10.6539 N.3     1  UNL1       -0.1841
     18 H          59.8717   88.5526   11.5144 H       1  UNL1        0.1484
     19 S          60.2488   87.9049    9.6139 S.O2    1  UNL1        0.0390
     20 O          59.7784   88.8835    8.5791 O.2     1  UNL1       -0.1576
     21 O          60.7192   86.9262   10.6487 O.2     1  UNL1       -0.1576
     22 C          59.1061   86.5987    7.6804 C.3     1  UNL1        0.0270
     23 C          60.2897   86.8248    8.5737 C.3     1  UNL1        0.1457
     24 C          61.5140   85.9707    8.4270 C.3     1  UNL1        0.0270
@<TRIPOS>BOND
     1    22    23    1
     2    23    24    1
     3    23    19    1
     4    19    20    2
     5    19    21    2
     6    19    17    1
     7    17     1    1
     8     1     2    1
     9     2     3    1
    10     3     4   ar
    11     4     5   ar
    12     5     6   ar
    13     6    10    1
    14    10    11   ar
    15    11    12   ar
    16    12    13   ar
    17    13    14    1
    18    13    15   ar
    19    15    16   ar
    20     6     7   ar
    21     7     8   ar
    22     8     9    1
    23     9     1    1
    24     8     3   ar
    25    16    10   ar
    26    17    18    1
@<TRIPOS>MOLECULE
*****
 24 26 0 0 0
SMALL
GASTEIGER

@<TRIPOS>ATOM
      1 C          63.3028   90.1769   12.2582 C.3     1  UNL1        0.0838
      2 C          62.5694   89.6437   11.0633 C.3     1  UNL1        0.0437
      3 C          62.4709   88.1538   11.2065 C.ar    1  UNL1       -0.0247
      4 C          61.8558   87.1001   10.3341 C.ar    1  UNL1       -0.0045
      5 C          61.9131   85.6587   10.7452 C.ar    1  UNL1        0.0012
      6 C          62.5856   85.2710   12.0287 C.ar    1  UNL1        0.0173
      7 C          63.2008   86.3248   12.9011 C.ar    1  UNL1       -0.0030
      8 C          63.1434   87.7662   12.4900 C.ar    1  UNL1       -0.0246
      9 C          63.6575   89.0165   13.1400 C.3     1  UNL1        0.0438
     10 C          62.6430   83.8295   12.4397 C.ar    1  UNL1        0.0815
     11 C          62.9559   82.7717   11.4234 C.ar    1  UNL1        0.0215
     12 C          63.0132   81.3302   11.8344 C.ar    1  UNL1        0.0328
     13 C          62.7577   80.9467   13.2619 C.ar    1  UNL1        0.1592
     14 F          62.8150   79.5053   13.6729 F       1  UNL1       -0.2025
     15 C          62.4448   82.0046   14.2782 C.ar    1  UNL1        0.1283
     16 N          62.3874   83.4460   13.8672 N.ar    1  UNL1       -0.2415
     17 N          63.6248   91.6175   12.5246 N.3     1  UNL1       -0.1841
     18 H          63.0961   92.1675   11.8475 H       1  UNL1        0.1484
     19 S          65.0454   92.0938   12.4545 S.O2    1  UNL1        0.0390
     20 O          65.1064   92.1323   13.9527 O.2     1  UNL1       -0.1576
     21 O          64.9844   92.0553   10.9563 O.2     1  UNL1       -0.1576
     22 C          67.2914   92.6543   13.6341 C.3     1  UNL1        0.0270
     23 C          66.4661   92.5701   12.3844 C.3     1  UNL1        0.1457
     24 C          67.0614   92.9623   11.0646 C.3     1  UNL1        0.0270
@<TRIPOS>BOND
     1    22    23    1
     2    23    24    1
     3    23    19    1
     4    19    20    2
     5    19    21    2
     6    19    17    1
     7    17     1    1
     8     1     2    1
     9     2     3    1
    10     3     4   ar
    11     4     5   ar
    12     5     6   ar
    13     6    10    1
    14    10    11   ar
    15    11    12   ar
    16    12    13   ar
    17    13    14    1
    18    13    15   ar
    19    15    16   ar
    20     6     7   ar
    21     7     8   ar
    22     8     9    1
    23     9     1    1
    24     8     3   ar
    25    16    10   ar
    26    17    18    1
@<TRIPOS>MOLECULE
*****
 24 26 0 0 0
SMALL
GASTEIGER

@<TRIPOS>ATOM
      1 C          61.9004   88.6478   11.3225 C.3     1  UNL1        0.0838
      2 C          62.5504   89.0895   12.6002 C.3     1  UNL1        0.0437
      3 C          63.4634   90.2367   12.2834 C.ar    1  UNL1       -0.0247
      4 C          64.3617   91.0724   13.1462 C.ar    1  UNL1       -0.0045
      5 C          65.1743   92.1754   12.5356 C.ar    1  UNL1        0.0012
      6 C          65.0885   92.4428   11.0621 C.ar    1  UNL1        0.0173
      7 C          64.1902   91.6071   10.1993 C.ar    1  UNL1       -0.0030
      8 C          63.3776   90.5040   10.8099 C.ar    1  UNL1       -0.0246
      9 C          62.4116   89.5220   10.2161 C.3     1  UNL1        0.0438
     10 C          65.9011   93.5460   10.4515 C.ar    1  UNL1        0.0815
     11 C          65.4289   94.9664   10.5468 C.ar    1  UNL1        0.0215
     12 C          66.2415   96.0696    9.9362 C.ar    1  UNL1        0.0328
     13 C          67.5264   95.7521    9.2303 C.ar    1  UNL1        0.1592
     14 F          68.3390   96.8552    8.6196 F       1  UNL1       -0.2025
     15 C          67.9987   94.3316    9.1350 C.ar    1  UNL1        0.1283
     16 N          67.1860   93.2285    9.7456 N.ar    1  UNL1       -0.2415
     17 N          60.9126   87.5284   11.1769 N.3     1  UNL1       -0.1841
     18 H          61.2700   86.7469   11.7264 H       1  UNL1        0.1484
     19 S          60.5869   86.9878    9.8162 S.O2    1  UNL1        0.0390
     20 O          61.7901   86.0947    9.8830 O.2     1  UNL1       -0.1576
     21 O          59.3836   87.8809    9.7494 O.2     1  UNL1       -0.1576
     22 C          58.9673   86.8154    7.7920 C.3     1  UNL1        0.0270
     23 C          60.2612   86.4472    8.4554 C.3     1  UNL1        0.1457
     24 C          61.2295   85.5383    7.7580 C.3     1  UNL1        0.0270
@<TRIPOS>BOND
     1    22    23    1
     2    23    24    1
     3    23    19    1
     4    19    20    2
     5    19    21    2
     6    19    17    1
     7    17     1    1
     8     1     2    1
     9     2     3    1
    10     3     4   ar
    11     4     5   ar
    12     5     6   ar
    13     6    10    1
    14    10    11   ar
    15    11    12   ar
    16    12    13   ar
    17    13    14    1
    18    13    15   ar
    19    15    16   ar
    20     6     7   ar
    21     7     8   ar
    22     8     9    1
    23     9     1    1
    24     8     3   ar
    25    16    10   ar
    26    17    18    1
@<TRIPOS>MOLECULE
*****
 24 26 0 0 0
SMALL
GASTEIGER

@<TRIPOS>ATOM
      1 C          61.7833   89.9071   10.3726 C.3     1  UNL1        0.0838
      2 C          61.9419   89.0260   11.5762 C.3     1  UNL1        0.0437
      3 C          63.0227   89.6084   12.4380 C.ar    1  UNL1       -0.0247
      4 C          63.6088   89.1690   13.7469 C.ar    1  UNL1       -0.0045
      5 C          64.7043   89.9707   14.3849 C.ar    1  UNL1        0.0012
      6 C          65.2137   91.2118   13.7140 C.ar    1  UNL1        0.0173
      7 C          64.6276   91.6512   12.4051 C.ar    1  UNL1       -0.0030
      8 C          63.5321   90.8495   11.7671 C.ar    1  UNL1       -0.0246
      9 C          62.7661   91.0341   10.4906 C.3     1  UNL1        0.0438
     10 C          66.3092   92.0135   14.3521 C.ar    1  UNL1        0.0815
     11 C          67.3749   91.3243   15.1515 C.ar    1  UNL1        0.0215
     12 C          68.4705   92.1260   15.7897 C.ar    1  UNL1        0.0328
     13 C          68.5002   93.6170   15.6283 C.ar    1  UNL1        0.1592
     14 F          69.5957   94.4187   16.2663 F       1  UNL1       -0.2025
     15 C          67.4345   94.3062   14.8288 C.ar    1  UNL1        0.1283
     16 N          66.3390   93.5045   14.1908 N.ar    1  UNL1       -0.2415
     17 N          60.8125   89.6979    9.2485 N.3     1  UNL1       -0.1841
     18 H          59.9180   90.0788    9.5573 H       1  UNL1        0.1484
     19 S          60.5410   88.3132    8.7398 S.O2    1  UNL1        0.0390
     20 O          59.2506   88.7867    8.1394 O.2     1  UNL1       -0.1576
     21 O          61.8314   87.8397    9.3403 O.2     1  UNL1       -0.1576
     22 C          61.3498   85.8887    8.2734 C.3     1  UNL1        0.0270
     23 C          60.2695   86.9284    8.2311 C.3     1  UNL1        0.1457
     24 C          58.9177   86.5835    7.6800 C.3     1  UNL1        0.0270
@<TRIPOS>BOND
     1    22    23    1
     2    23    24    1
     3    23    19    1
     4    19    20    2
     5    19    21    2
     6    19    17    1
     7    17     1    1
     8     1     2    1
     9     2     3    1
    10     3     4   ar
    11     4     5   ar
    12     5     6   ar
    13     6    10    1
    14    10    11   ar
    15    11    12   ar
    16    12    13   ar
    17    13    14    1
    18    13    15   ar
    19    15    16   ar
    20     6     7   ar
    21     7     8   ar
    22     8     9    1
    23     9     1    1
    24     8     3   ar
    25    16    10   ar
    26    17    18    1
@<TRIPOS>MOLECULE
*****
 24 26 0 0 0
SMALL
GASTEIGER

@<TRIPOS>ATOM
      1 C          62.3391   86.9906   11.9320 C.3     1  UNL1        0.0838
      2 C          62.1207   88.2170   11.0964 C.3     1  UNL1        0.0437
      3 C          62.9823   89.3137   11.6486 C.ar    1  UNL1       -0.0247
      4 C          63.1801   90.7410   11.2319 C.ar    1  UNL1       -0.0045
      5 C          64.1287   91.6197   11.9920 C.ar    1  UNL1        0.0012
      6 C          64.8796   91.0711   13.1690 C.ar    1  UNL1        0.0173
      7 C          64.6818   89.6438   13.5858 C.ar    1  UNL1       -0.0030
      8 C          63.7332   88.7651   12.8256 C.ar    1  UNL1       -0.0246
      9 C          63.3357   87.3294   13.0007 C.3     1  UNL1        0.0438
     10 C          65.8283   91.9499   13.9292 C.ar    1  UNL1        0.0815
     11 C          66.6285   91.3839   15.0647 C.ar    1  UNL1        0.0215
     12 C          67.5772   92.2627   15.8249 C.ar    1  UNL1        0.0328
     13 C          67.7256   93.7074   15.4495 C.ar    1  UNL1        0.1592
     14 F          68.6742   94.5861   16.2096 F       1  UNL1       -0.2025
     15 C          66.9254   94.2733   14.3139 C.ar    1  UNL1        0.1283
     16 N          65.9767   93.3945   13.5538 N.ar    1  UNL1       -0.2415
     17 N          61.6772   85.6592   11.7338 N.3     1  UNL1       -0.1841
     18 H          61.1091   85.4864   12.5631 H       1  UNL1        0.1484
     19 S          62.5116   84.4317   11.5170 S.O2    1  UNL1        0.0390
     20 O          62.2726   84.0182   12.9389 O.2     1  UNL1       -0.1576
     21 O          62.7505   84.8452   10.0951 O.2     1  UNL1       -0.1576
     22 C          64.2888   83.1341   10.1358 C.3     1  UNL1        0.0270
     23 C          63.3459   83.2041   11.3003 C.3     1  UNL1        0.1457
     24 C          63.2374   82.0466   12.2481 C.3     1  UNL1        0.0270
@<TRIPOS>BOND
     1    22    23    1
     2    23    24    1
     3    23    19    1
     4    19    20    2
     5    19    21    2
     6    19    17    1
     7    17     1    1
     8     1     2    1
     9     2     3    1
    10     3     4   ar
    11     4     5   ar
    12     5     6   ar
    13     6    10    1
    14    10    11   ar
    15    11    12   ar
    16    12    13   ar
    17    13    14    1
    18    13    15   ar
    19    15    16   ar
    20     6     7   ar
    21     7     8   ar
    22     8     9    1
    23     9     1    1
    24     8     3   ar
    25    16    10   ar
    26    17    18    1
@<TRIPOS>MOLECULE
*****
 24 26 0 0 0
SMALL
GASTEIGER

@<TRIPOS>ATOM
      1 C          63.7777   90.1234   14.9845 C.3     1  UNL1        0.0838
      2 C          64.7686   90.9757   15.7206 C.3     1  UNL1        0.0437
      3 C          65.3713   91.9377   14.7401 C.ar    1  UNL1       -0.0247
      4 C          66.4032   93.0151   14.8961 C.ar    1  UNL1       -0.0045
      5 C          66.8168   93.8347   13.7099 C.ar    1  UNL1        0.0012
      6 C          66.1984   93.5771   12.3678 C.ar    1  UNL1        0.0173
      7 C          65.1664   92.4998   12.2119 C.ar    1  UNL1       -0.0030
      8 C          64.7529   91.6801   13.3981 C.ar    1  UNL1       -0.0246
      9 C          63.7680   90.5588   13.5491 C.3     1  UNL1        0.0438
     10 C          66.6120   94.3969   11.1816 C.ar    1  UNL1        0.0815
     11 C          66.2183   95.8416   11.0944 C.ar    1  UNL1        0.0215
     12 C          66.6320   96.6614    9.9082 C.ar    1  UNL1        0.0328
     13 C          67.4393   96.0363    8.8093 C.ar    1  UNL1        0.1592
     14 F          67.8529   96.8560    7.6231 F       1  UNL1       -0.2025
     15 C          67.8329   94.5915    8.8966 C.ar    1  UNL1        0.1283
     16 N          67.4193   93.7718   10.0827 N.ar    1  UNL1       -0.2415
     17 N          62.9431   89.0282   15.5793 N.3     1  UNL1       -0.1841
     18 H          62.7340   89.3051   16.5384 H       1  UNL1        0.1484
     19 S          63.4763   87.6275   15.6395 S.O2    1  UNL1        0.0390
     20 O          62.9218   87.4760   17.0250 O.2     1  UNL1       -0.1576
     21 O          64.0308   87.7789   14.2540 O.2     1  UNL1       -0.1576
     22 C          63.4330   85.2462   16.6776 C.3     1  UNL1        0.0270
     23 C          64.0095   86.2267   15.6998 C.3     1  UNL1        0.1457
     24 C          65.1192   85.8064   14.7822 C.3     1  UNL1        0.0270
@<TRIPOS>BOND
     1    22    23    1
     2    23    24    1
     3    23    19    1
     4    19    20    2
     5    19    21    2
     6    19    17    1
     7    17     1    1
     8     1     2    1
     9     2     3    1
    10     3     4   ar
    11     4     5   ar
    12     5     6   ar
    13     6    10    1
    14    10    11   ar
    15    11    12   ar
    16    12    13   ar
    17    13    14    1
    18    13    15   ar
    19    15    16   ar
    20     6     7   ar
    21     7     8   ar
    22     8     9    1
    23     9     1    1
    24     8     3   ar
    25    16    10   ar
    26    17    18    1
@<TRIPOS>MOLECULE
*****
 24 26 0 0 0
SMALL
GASTEIGER

@<TRIPOS>ATOM
      1 C          62.9562   83.9730   15.2687 C.3     1  UNL1        0.0838
      2 C          62.5203   84.8469   16.4072 C.3     1  UNL1        0.0437
      3 C          62.9761   86.2465   16.1182 C.ar    1  UNL1       -0.0247
      4 C          62.8304   87.5278   16.8842 C.ar    1  UNL1       -0.0045
      5 C          63.4023   88.8003   16.3331 C.ar    1  UNL1        0.0012
      6 C          64.1200   88.7913   15.0160 C.ar    1  UNL1        0.0173
      7 C          64.2657   87.5100   14.2500 C.ar    1  UNL1       -0.0030
      8 C          63.6938   86.2376   14.8011 C.ar    1  UNL1       -0.0246
      9 C          63.6815   84.8325   14.2760 C.3     1  UNL1        0.0438
     10 C          64.6920   90.0638   14.4649 C.ar    1  UNL1        0.0815
     11 C          64.4199   90.4542   13.0424 C.ar    1  UNL1        0.0215
     12 C          64.9919   91.7267   12.4913 C.ar    1  UNL1        0.0328
     13 C          65.8359   92.6088   13.3628 C.ar    1  UNL1        0.1592
     14 F          66.4078   93.8813   12.8118 F       1  UNL1       -0.2025
     15 C          66.1079   92.2184   14.7854 C.ar    1  UNL1        0.1283
     16 N          65.5360   90.9460   15.3364 N.ar    1  UNL1       -0.2415
     17 N          62.7101   82.4986   15.1446 N.3     1  UNL1       -0.1841
     18 H          63.3601   82.0370   15.7809 H       1  UNL1        0.1484
     19 S          62.8549   81.8235   13.8129 S.O2    1  UNL1        0.0390
     20 O          61.9942   82.8790   13.1843 O.2     1  UNL1       -0.1576
     21 O          63.7155   80.7680   14.4416 O.2     1  UNL1       -0.1576
     22 C          62.6676   79.6926   12.3383 C.3     1  UNL1        0.0270
     23 C          62.9996   81.1484   12.4812 C.3     1  UNL1        0.1457
     24 C          63.4763   81.9292   11.2925 C.3     1  UNL1        0.0270
@<TRIPOS>BOND
     1    22    23    1
     2    23    24    1
     3    23    19    1
     4    19    20    2
     5    19    21    2
     6    19    17    1
     7    17     1    1
     8     1     2    1
     9     2     3    1
    10     3     4   ar
    11     4     5   ar
    12     5     6   ar
    13     6    10    1
    14    10    11   ar
    15    11    12   ar
    16    12    13   ar
    17    13    14    1
    18    13    15   ar
    19    15    16   ar
    20     6     7   ar
    21     7     8   ar
    22     8     9    1
    23     9     1    1
    24     8     3   ar
    25    16    10   ar
    26    17    18    1
