@<TRIPOS>MOLECULE
*****
 16 18 0 0 0
SMALL
GASTEIGER

@<TRIPOS>ATOM
      1 O          64.1144   85.0766   15.8275 O.3     1  UNL1       -0.4716
      2 CL         62.5993   86.4465   18.0248 Cl      1  UNL1       -0.0581
      3 C          63.1467   87.2460   16.8798 C.ar    1  UNL1        0.1721
      4 N          62.9366   88.7304   16.8334 N.ar    1  UNL1       -0.2294
      5 C          63.4839   89.5300   15.6883 C.ar    1  UNL1        0.1001
      6 C          64.2415   88.8451   14.5897 C.ar    1  UNL1        0.0239
      7 C          64.4516   87.3606   14.6361 C.ar    1  UNL1        0.0410
      8 C          63.9042   86.5611   15.7812 C.ar    1  UNL1        0.1669
      9 C          64.5076   84.3356   14.5840 C.3     1  UNL1        0.2210
     10 C          63.7991   83.0672   14.2111 C.3     1  UNL1        0.0983
     11 C          64.1273   82.1845   13.0436 C.3     1  UNL1        0.0209
     12 C          63.1691   81.0305   13.0511 C.3     1  UNL1        0.0172
     13 C          62.0953   80.0167   13.3143 C.3     1  UNL1        0.0171
     14 C          62.2486   81.1999   14.2234 C.3     1  UNL1        0.0541
     15 N          62.6380   82.4587   14.9402 N.3     1  UNL1       -0.2966
     16 H          62.9073   82.2414   15.8998 H       1  UNL1        0.1233
@<TRIPOS>BOND
     1     2     3    1
     2     3     4   ar
     3     4     5   ar
     4     5     6   ar
     5     6     7   ar
     6     7     8   ar
     7     8     1    1
     8     1     9    1
     9    10     9    1
    10    10    11    1
    11    12    11    1
    12    12    13    1
    13    14    13    1
    14    14    15    1
    15     8     3   ar
    16    15    10    1
    17    14    12    1
    18    15    16    1
@<TRIPOS>MOLECULE
*****
 16 18 0 0 0
SMALL
GASTEIGER

@<TRIPOS>ATOM
      1 O          64.0972   85.0806   15.7678 O.3     1  UNL1       -0.4716
      2 CL         62.6282   86.4593   17.9907 Cl      1  UNL1       -0.0581
      3 C          63.1637   87.2562   16.8383 C.ar    1  UNL1        0.1721
      4 N          62.9648   88.7423   16.7972 N.ar    1  UNL1       -0.2294
      5 C          63.5004   89.5392   15.6448 C.ar    1  UNL1        0.1001
      6 C          64.2349   88.8499   14.5333 C.ar    1  UNL1        0.0239
      7 C          64.4339   87.3637   14.5744 C.ar    1  UNL1        0.0410
      8 C          63.8983   86.5669   15.7268 C.ar    1  UNL1        0.1669
      9 C          63.1802   84.1796   14.9951 C.3     1  UNL1        0.2210
     10 C          63.4475   83.9023   13.5454 C.3     1  UNL1        0.0983
     11 C          62.6346   84.4015   12.3878 C.3     1  UNL1        0.0209
     12 C          63.2594   83.8848   11.1257 C.3     1  UNL1        0.0172
     13 C          64.0904   83.2354   10.0590 C.3     1  UNL1        0.0171
     14 C          64.4584   83.0663   11.5033 C.3     1  UNL1        0.0541
     15 N          64.5746   83.0772   12.9988 N.3     1  UNL1       -0.2966
     16 H          65.4678   83.4859   13.2736 H       1  UNL1        0.1233
@<TRIPOS>BOND
     1     2     3    1
     2     3     4   ar
     3     4     5   ar
     4     5     6   ar
     5     6     7   ar
     6     7     8   ar
     7     8     1    1
     8     1     9    1
     9    10     9    1
    10    10    11    1
    11    12    11    1
    12    12    13    1
    13    14    13    1
    14    14    15    1
    15     8     3   ar
    16    15    10    1
    17    14    12    1
    18    15    16    1
@<TRIPOS>MOLECULE
*****
 16 18 0 0 0
SMALL
GASTEIGER

@<TRIPOS>ATOM
      1 O          63.9442   91.9138   12.7353 O.3     1  UNL1       -0.4716
      2 CL         64.3488   89.3401   14.2227 Cl      1  UNL1       -0.0581
      3 C          63.6153   89.3428   12.9143 C.ar    1  UNL1        0.1721
      4 N          63.0842   88.0587   12.3496 N.ar    1  UNL1       -0.2294
      5 C          62.3507   88.0614   11.0412 C.ar    1  UNL1        0.1001
      6 C          62.1483   89.3482   10.2975 C.ar    1  UNL1        0.0239
      7 C          62.6795   90.6323   10.8622 C.ar    1  UNL1        0.0410
      8 C          63.4130   90.6296   12.1706 C.ar    1  UNL1        0.1669
      9 C          65.3208   92.3822   12.3674 C.3     1  UNL1        0.2210
     10 C          66.3402   92.6302   13.4394 C.3     1  UNL1        0.0983
     11 C          67.5928   91.8366   13.6655 C.3     1  UNL1        0.0209
     12 C          68.3127   92.4312   14.8394 C.3     1  UNL1        0.0172
     13 C          68.7917   93.2265   16.0176 C.3     1  UNL1        0.0171
     14 C          67.5050   93.5923   15.3390 C.3     1  UNL1        0.0541
     15 N          66.2859   93.7152   14.4737 N.3     1  UNL1       -0.2966
     16 H          66.2756   94.6277   14.0179 H       1  UNL1        0.1233
@<TRIPOS>BOND
     1     2     3    1
     2     3     4   ar
     3     4     5   ar
     4     5     6   ar
     5     6     7   ar
     6     7     8   ar
     7     8     1    1
     8     1     9    1
     9    10     9    1
    10    10    11    1
    11    12    11    1
    12    12    13    1
    13    14    13    1
    14    14    15    1
    15     8     3   ar
    16    15    10    1
    17    14    12    1
    18    15    16    1
@<TRIPOS>MOLECULE
*****
 16 18 0 0 0
SMALL
GASTEIGER

@<TRIPOS>ATOM
      1 O          62.5962   85.2391   12.7963 O.3     1  UNL1       -0.4716
      2 CL         62.4595   84.0208   15.5344 Cl      1  UNL1       -0.0581
      3 C          62.6187   83.1417   14.3295 C.ar    1  UNL1        0.1721
      4 N          62.7096   81.6535   14.4935 N.ar    1  UNL1       -0.2294
      5 C          62.8689   80.7745   13.2886 C.ar    1  UNL1        0.1001
      6 C          62.9372   81.3836   11.9196 C.ar    1  UNL1        0.0239
      7 C          62.8463   82.8718   11.7555 C.ar    1  UNL1        0.0410
      8 C          62.6871   83.7508   12.9605 C.ar    1  UNL1        0.1669
      9 C          62.0875   85.8223   11.5113 C.3     1  UNL1        0.2210
     10 C          62.2962   87.2775   11.2136 C.3     1  UNL1        0.0983
     11 C          62.0272   87.9568    9.9036 C.3     1  UNL1        0.0209
     12 C          62.3753   89.4081   10.0540 C.3     1  UNL1        0.0172
     13 C          62.7981   90.7772   10.4977 C.3     1  UNL1        0.0171
     14 C          62.8594   89.6258   11.4570 C.3     1  UNL1        0.0541
     15 N          62.8105   88.3090   12.1737 N.3     1  UNL1       -0.2966
     16 H          62.1862   88.3754   12.9776 H       1  UNL1        0.1233
@<TRIPOS>BOND
     1     2     3    1
     2     3     4   ar
     3     4     5   ar
     4     5     6   ar
     5     6     7   ar
     6     7     8   ar
     7     8     1    1
     8     1     9    1
     9    10     9    1
    10    10    11    1
    11    12    11    1
    12    12    13    1
    13    14    13    1
    14    14    15    1
    15     8     3   ar
    16    15    10    1
    17    14    12    1
    18    15    16    1
@<TRIPOS>MOLECULE
*****
 16 18 0 0 0
SMALL
GASTEIGER

@<TRIPOS>ATOM
      1 O          63.8067   84.3637   12.5742 O.3     1  UNL1       -0.4716
      2 CL         64.1053   82.2570   10.4593 Cl      1  UNL1       -0.0581
      3 C          63.3897   81.9392   11.7387 C.ar    1  UNL1        0.1721
      4 N          62.8234   80.5681   11.9606 N.ar    1  UNL1       -0.2294
      5 C          62.1078   80.2502   13.2401 C.ar    1  UNL1        0.1001
      6 C          61.9585   81.3035   14.2975 C.ar    1  UNL1        0.0239
      7 C          62.5248   82.6746   14.0756 C.ar    1  UNL1        0.0410
      8 C          63.2404   82.9925   12.7961 C.ar    1  UNL1        0.1669
      9 C          62.9012   85.5595   12.5826 C.3     1  UNL1        0.2210
     10 C          62.1348   85.9286   11.3472 C.3     1  UNL1        0.0983
     11 C          62.4722   85.5175    9.9446 C.3     1  UNL1        0.0209
     12 C          61.4424   86.1085    9.0280 C.3     1  UNL1        0.0172
     13 C          60.2918   86.8164    8.3760 C.3     1  UNL1        0.0171
     14 C          60.4685   86.8849    9.8640 C.3     1  UNL1        0.0541
     15 N          60.8965   86.7737   11.2973 N.3     1  UNL1       -0.2966
     16 H          60.1566   86.3362   11.8465 H       1  UNL1        0.1233
@<TRIPOS>BOND
     1     2     3    1
     2     3     4   ar
     3     4     5   ar
     4     5     6   ar
     5     6     7   ar
     6     7     8   ar
     7     8     1    1
     8     1     9    1
     9    10     9    1
    10    10    11    1
    11    12    11    1
    12    12    13    1
    13    14    13    1
    14    14    15    1
    15     8     3   ar
    16    15    10    1
    17    14    12    1
    18    15    16    1
@<TRIPOS>MOLECULE
*****
 16 18 0 0 0
SMALL
GASTEIGER

@<TRIPOS>ATOM
      1 O          62.3291   85.2470   12.9332 O.3     1  UNL1       -0.4716
      2 CL         62.5070   83.9110   15.6134 Cl      1  UNL1       -0.0581
      3 C          62.6789   83.1044   14.3604 C.ar    1  UNL1        0.1721
      4 N          62.9398   81.6299   14.4475 N.ar    1  UNL1       -0.2294
      5 C          63.1118   80.8233   13.1946 C.ar    1  UNL1        0.1001
      6 C          63.0229   81.4913   11.8545 C.ar    1  UNL1        0.0239
      7 C          62.7620   82.9659   11.7674 C.ar    1  UNL1        0.0410
      8 C          62.5900   83.7724   13.0204 C.ar    1  UNL1        0.1669
      9 C          62.7716   86.0168   11.7242 C.3     1  UNL1        0.2210
     10 C          61.8033   86.2860   10.6107 C.3     1  UNL1        0.0983
     11 C          61.9413   85.8222    9.1909 C.3     1  UNL1        0.0209
     12 C          60.7503   86.3159    8.4242 C.3     1  UNL1        0.0172
     13 C          59.4747   86.9336    7.9329 C.3     1  UNL1        0.0171
     14 C          59.8762   87.0848    9.3702 C.3     1  UNL1        0.0541
     15 N          60.5271   87.0663   10.7215 N.3     1  UNL1       -0.2966
     16 H          59.9070   86.6215   11.3983 H       1  UNL1        0.1233
@<TRIPOS>BOND
     1     2     3    1
     2     3     4   ar
     3     4     5   ar
     4     5     6   ar
     5     6     7   ar
     6     7     8   ar
     7     8     1    1
     8     1     9    1
     9    10     9    1
    10    10    11    1
    11    12    11    1
    12    12    13    1
    13    14    13    1
    14    14    15    1
    15     8     3   ar
    16    15    10    1
    17    14    12    1
    18    15    16    1
@<TRIPOS>MOLECULE
*****
 16 18 0 0 0
SMALL
GASTEIGER

@<TRIPOS>ATOM
      1 O          62.9544   84.9243   12.5384 O.3     1  UNL1       -0.4716
      2 CL         64.0530   82.9556   10.5593 Cl      1  UNL1       -0.0581
      3 C          63.3222   82.4682   11.7752 C.ar    1  UNL1        0.1721
      4 N          63.1407   80.9966   12.0015 N.ar    1  UNL1       -0.2294
      5 C          62.4099   80.5093   13.2174 C.ar    1  UNL1        0.1001
      6 C          61.8605   81.4936   14.2070 C.ar    1  UNL1        0.0239
      7 C          62.0420   82.9653   13.9806 C.ar    1  UNL1        0.0410
      8 C          62.7729   83.4526   12.7647 C.ar    1  UNL1        0.1669
      9 C          62.1252   85.6326   11.5084 C.3     1  UNL1        0.2210
     10 C          62.3336   87.0962   11.2548 C.3     1  UNL1        0.0983
     11 C          62.0190   87.8239    9.9815 C.3     1  UNL1        0.0209
     12 C          62.3842   89.2666   10.1698 C.3     1  UNL1        0.0172
     13 C          62.8349   90.6161   10.6450 C.3     1  UNL1        0.0171
     14 C          62.9245   89.4304   11.5595 C.3     1  UNL1        0.0541
     15 N          62.8933   88.0891   12.2301 N.3     1  UNL1       -0.2966
     16 H          62.3015   88.1306   13.0598 H       1  UNL1        0.1233
@<TRIPOS>BOND
     1     2     3    1
     2     3     4   ar
     3     4     5   ar
     4     5     6   ar
     5     6     7   ar
     6     7     8   ar
     7     8     1    1
     8     1     9    1
     9    10     9    1
    10    10    11    1
    11    12    11    1
    12    12    13    1
    13    14    13    1
    14    14    15    1
    15     8     3   ar
    16    15    10    1
    17    14    12    1
    18    15    16    1
@<TRIPOS>MOLECULE
*****
 16 18 0 0 0
SMALL
GASTEIGER

@<TRIPOS>ATOM
      1 O          64.5580   92.0819   13.4864 O.3     1  UNL1       -0.4716
      2 CL         67.0342   92.3027   11.8072 Cl      1  UNL1       -0.0581
      3 C          67.1305   92.3951   13.3012 C.ar    1  UNL1        0.1721
      4 N          68.4648   92.5979   13.9557 N.ar    1  UNL1       -0.2294
      5 C          68.5611   92.6903   15.4498 C.ar    1  UNL1        0.1001
      6 C          67.3230   92.5798   16.2893 C.ar    1  UNL1        0.0239
      7 C          65.9887   92.3770   15.6349 C.ar    1  UNL1        0.0410
      8 C          65.8924   92.2847   14.1408 C.ar    1  UNL1        0.1669
      9 C          63.8555   90.7622   13.6087 C.3     1  UNL1        0.2210
     10 C          63.0877   90.2104   12.4442 C.3     1  UNL1        0.0983
     11 C          63.0048   88.7662   12.0475 C.3     1  UNL1        0.0209
     12 C          62.1340   88.6692   10.8301 C.3     1  UNL1        0.0172
     13 C          61.2414   88.8835    9.6437 C.3     1  UNL1        0.0171
     14 C          61.6786   90.0535   10.4743 C.3     1  UNL1        0.0541
     15 N          62.2681   91.0060   11.4719 N.3     1  UNL1       -0.2966
     16 H          61.5219   91.4946   11.9668 H       1  UNL1        0.1233
@<TRIPOS>BOND
     1     2     3    1
     2     3     4   ar
     3     4     5   ar
     4     5     6   ar
     5     6     7   ar
     6     7     8   ar
     7     8     1    1
     8     1     9    1
     9    10     9    1
    10    10    11    1
    11    12    11    1
    12    12    13    1
    13    14    13    1
    14    14    15    1
    15     8     3   ar
    16    15    10    1
    17    14    12    1
    18    15    16    1
@<TRIPOS>MOLECULE
*****
 16 18 0 0 0
SMALL
GASTEIGER

@<TRIPOS>ATOM
      1 O          65.0774   91.9755   13.4195 O.3     1  UNL1       -0.4716
      2 CL         64.4069   89.3011   14.6020 Cl      1  UNL1       -0.0581
      3 C          63.8901   89.6713   13.2433 C.ar    1  UNL1        0.1721
      4 N          63.0381   88.7043   12.4760 N.ar    1  UNL1       -0.2294
      5 C          62.5213   89.0744   11.1173 C.ar    1  UNL1        0.1001
      6 C          62.8565   90.4116   10.5260 C.ar    1  UNL1        0.0239
      7 C          63.7086   91.3786   11.2934 C.ar    1  UNL1        0.0410
      8 C          64.2253   91.0084   12.6521 C.ar    1  UNL1        0.1669
      9 C          65.6886   93.1542   12.7215 C.3     1  UNL1        0.2210
     10 C          66.6052   92.9417   11.5534 C.3     1  UNL1        0.0983
     11 C          67.7101   91.9305   11.4723 C.3     1  UNL1        0.0209
     12 C          68.3657   92.0668   10.1301 C.3     1  UNL1        0.0172
     13 C          68.8097   92.4305    8.7442 C.3     1  UNL1        0.0171
     14 C          67.6660   93.1624    9.3816 C.3     1  UNL1        0.0541
     15 N          66.5779   93.7030   10.2612 N.3     1  UNL1       -0.2966
     16 H          65.6729   93.5813    9.8068 H       1  UNL1        0.1233
@<TRIPOS>BOND
     1     2     3    1
     2     3     4   ar
     3     4     5   ar
     4     5     6   ar
     5     6     7   ar
     6     7     8   ar
     7     8     1    1
     8     1     9    1
     9    10     9    1
    10    10    11    1
    11    12    11    1
    12    12    13    1
    13    14    13    1
    14    14    15    1
    15     8     3   ar
    16    15    10    1
    17    14    12    1
    18    15    16    1
