@<TRIPOS>MOLECULE
*****
 16 18 0 0 0
SMALL
GASTEIGER

@<TRIPOS>ATOM
      1 C          62.5429   84.7652   15.9733 C.3     1  UNL1        0.2210
      2 C          62.5887   83.8079   14.8194 C.3     1  UNL1        0.0982
      3 C          62.7541   84.3258   13.4214 C.3     1  UNL1        0.0196
      4 C          62.7999   83.3685   12.2675 C.3     1  UNL1        0.0029
      5 C          62.6803   81.8933   12.5116 C.3     1  UNL1        0.0158
      6 C          62.5607   80.4181   12.7558 C.3     1  UNL1        0.0170
      7 C          62.5149   81.3754   13.9097 C.3     1  UNL1        0.0541
      8 N          62.4691   82.3328   15.0636 N.3     1  UNL1       -0.2966
      9 H          63.2316   82.0753   15.6903 H       1  UNL1        0.1233
     10 O          63.7360   85.6183   16.2879 O.3     1  UNL1       -0.4724
     11 C          64.3488   89.0546   14.3994 C.ar    1  UNL1        0.0238
     12 C          63.6728   90.0152   15.3324 C.ar    1  UNL1        0.0991
     13 N          63.0179   89.5102   16.5838 N.ar    1  UNL1       -0.2391
     14 C          63.0390   88.0445   16.9023 C.ar    1  UNL1        0.1356
     15 C          63.7149   87.0839   15.9694 C.ar    1  UNL1        0.1577
     16 C          64.3698   87.5890   14.7180 C.ar    1  UNL1        0.0401
@<TRIPOS>BOND
     1    11    12   ar
     2    12    13   ar
     3    13    14   ar
     4    14    15   ar
     5    15    10    1
     6    10     1    1
     7     2     1    1
     8     2     3    1
     9     3     4    1
    10     5     4    1
    11     5     6    1
    12     7     6    1
    13     7     8    1
    14    15    16   ar
    15    16    11   ar
    16     8     2    1
    17     7     5    1
    18     8     9    1
@<TRIPOS>MOLECULE
*****
 16 18 0 0 0
SMALL
GASTEIGER

@<TRIPOS>ATOM
      1 C          63.8429   90.7136   14.6379 C.3     1  UNL1        0.2210
      2 C          63.7347   89.3407   15.2324 C.3     1  UNL1        0.0982
      3 C          64.3729   88.1719   14.5419 C.3     1  UNL1        0.0196
      4 C          64.2646   86.7991   15.1364 C.3     1  UNL1        0.0029
      5 C          63.5182   86.5949   16.4215 C.3     1  UNL1        0.0158
      6 C          62.7718   86.3908   17.7064 C.3     1  UNL1        0.0170
      7 C          62.8800   87.7636   17.1119 C.3     1  UNL1        0.0541
      8 N          62.9883   89.1366   16.5174 N.3     1  UNL1       -0.2966
      9 H          63.4399   89.7256   17.2170 H       1  UNL1        0.1233
     10 O          64.9863   91.0482   13.7264 O.3     1  UNL1       -0.4724
     11 C          67.4100   92.9837   16.2022 C.ar    1  UNL1        0.0238
     12 C          68.6529   93.0763   15.3675 C.ar    1  UNL1        0.0991
     13 N          68.6736   92.4928   13.9858 N.ar    1  UNL1       -0.2391
     14 C          67.4513   91.8168   13.4388 C.ar    1  UNL1        0.1356
     15 C          66.2085   91.7242   14.2735 C.ar    1  UNL1        0.1577
     16 C          66.1878   92.3077   15.6552 C.ar    1  UNL1        0.0401
@<TRIPOS>BOND
     1    11    12   ar
     2    12    13   ar
     3    13    14   ar
     4    14    15   ar
     5    15    10    1
     6    10     1    1
     7     2     1    1
     8     2     3    1
     9     3     4    1
    10     5     4    1
    11     5     6    1
    12     7     6    1
    13     7     8    1
    14    15    16   ar
    15    16    11   ar
    16     8     2    1
    17     7     5    1
    18     8     9    1
@<TRIPOS>MOLECULE
*****
 16 18 0 0 0
SMALL
GASTEIGER

@<TRIPOS>ATOM
      1 C          64.5963   85.1096   14.2680 C.3     1  UNL1        0.2210
      2 C          64.0845   86.1947   15.1683 C.3     1  UNL1        0.0982
      3 C          63.3949   85.8407   16.4525 C.3     1  UNL1        0.0196
      4 C          62.8831   86.9259   17.3528 C.3     1  UNL1        0.0029
      5 C          63.0609   88.3650   16.9689 C.3     1  UNL1        0.0158
      6 C          63.2388   89.8041   16.5850 C.3     1  UNL1        0.0170
      7 C          63.7505   88.7190   15.6847 C.3     1  UNL1        0.0541
      8 N          64.2623   87.6338   14.7844 N.3     1  UNL1       -0.2966
      9 H          65.2649   87.7883   14.6775 H       1  UNL1        0.1233
     10 O          63.7289   84.5784   13.1655 O.3     1  UNL1       -0.4724
     11 C          62.7894   80.8478   12.1909 C.ar    1  UNL1        0.0238
     12 C          62.0613   80.4069   13.4261 C.ar    1  UNL1        0.0991
     13 N          61.8891   81.3565   14.5743 N.ar    1  UNL1       -0.2391
     14 C          62.4450   82.7471   14.4874 C.ar    1  UNL1        0.1356
     15 C          63.1730   83.1879   13.2523 C.ar    1  UNL1        0.1577
     16 C          63.3453   82.2383   12.1041 C.ar    1  UNL1        0.0401
@<TRIPOS>BOND
     1    11    12   ar
     2    12    13   ar
     3    13    14   ar
     4    14    15   ar
     5    15    10    1
     6    10     1    1
     7     2     1    1
     8     2     3    1
     9     3     4    1
    10     5     4    1
    11     5     6    1
    12     7     6    1
    13     7     8    1
    14    15    16   ar
    15    16    11   ar
    16     8     2    1
    17     7     5    1
    18     8     9    1
@<TRIPOS>MOLECULE
*****
 16 18 0 0 0
SMALL
GASTEIGER

@<TRIPOS>ATOM
      1 C          66.1375   92.3577   12.6931 C.3     1  UNL1        0.2210
      2 C          66.6714   93.0807   11.4922 C.3     1  UNL1        0.0982
      3 C          67.4222   92.3264   10.4351 C.3     1  UNL1        0.0196
      4 C          67.9561   93.0493    9.2342 C.3     1  UNL1        0.0029
      5 C          67.7393   94.5266    9.0903 C.3     1  UNL1        0.0158
      6 C          67.5225   96.0038    8.9465 C.3     1  UNL1        0.0170
      7 C          66.9885   95.2809   10.1474 C.3     1  UNL1        0.0541
      8 N          66.4546   94.5579   11.3483 N.3     1  UNL1       -0.2966
      9 H          65.4460   94.7099   11.3592 H       1  UNL1        0.1233
     10 O          64.6566   92.2238   12.8909 O.3     1  UNL1       -0.4724
     11 C          62.6386   89.9666   10.3253 C.ar    1  UNL1        0.0238
     12 C          62.4598   88.7134   11.1299 C.ar    1  UNL1        0.0991
     13 N          63.0133   88.6303   12.5216 N.ar    1  UNL1       -0.2391
     14 C          63.7456   89.8005   13.1086 C.ar    1  UNL1        0.1356
     15 C          63.9243   91.0537   12.3039 C.ar    1  UNL1        0.1577
     16 C          63.3708   91.1367   10.9122 C.ar    1  UNL1        0.0401
@<TRIPOS>BOND
     1    11    12   ar
     2    12    13   ar
     3    13    14   ar
     4    14    15   ar
     5    15    10    1
     6    10     1    1
     7     2     1    1
     8     2     3    1
     9     3     4    1
    10     5     4    1
    11     5     6    1
    12     7     6    1
    13     7     8    1
    14    15    16   ar
    15    16    11   ar
    16     8     2    1
    17     7     5    1
    18     8     9    1
@<TRIPOS>MOLECULE
*****
 16 18 0 0 0
SMALL
GASTEIGER

@<TRIPOS>ATOM
      1 C          61.6927   85.7802   11.2265 C.3     1  UNL1        0.2210
      2 C          61.3000   87.2136   11.0239 C.3     1  UNL1        0.0982
      3 C          62.0603   88.0697   10.0548 C.3     1  UNL1        0.0196
      4 C          61.6676   89.5032    9.8522 C.3     1  UNL1        0.0029
      5 C          60.5146   90.0805   10.6187 C.3     1  UNL1        0.0158
      6 C          59.3617   90.6578   11.3851 C.3     1  UNL1        0.0170
      7 C          59.7544   89.2244   11.5878 C.3     1  UNL1        0.0541
      8 N          60.1471   87.7909   11.7903 N.3     1  UNL1       -0.2966
      9 H          59.3291   87.2263   11.5613 H       1  UNL1        0.1233
     10 O          62.4542   85.3775   12.4545 O.3     1  UNL1       -0.4724
     11 C          62.9589   81.4679   11.9964 C.ar    1  UNL1        0.0238
     12 C          63.0141   81.0197   13.4268 C.ar    1  UNL1        0.0991
     13 N          62.8827   82.0240   14.5331 N.ar    1  UNL1       -0.2391
     14 C          62.6960   83.4767   14.2090 C.ar    1  UNL1        0.1356
     15 C          62.6408   83.9249   12.7786 C.ar    1  UNL1        0.1577
     16 C          62.7723   82.9205   11.6723 C.ar    1  UNL1        0.0401
@<TRIPOS>BOND
     1    11    12   ar
     2    12    13   ar
     3    13    14   ar
     4    14    15   ar
     5    15    10    1
     6    10     1    1
     7     2     1    1
     8     2     3    1
     9     3     4    1
    10     5     4    1
    11     5     6    1
    12     7     6    1
    13     7     8    1
    14    15    16   ar
    15    16    11   ar
    16     8     2    1
    17     7     5    1
    18     8     9    1
@<TRIPOS>MOLECULE
*****
 16 18 0 0 0
SMALL
GASTEIGER

@<TRIPOS>ATOM
      1 C          62.7890   84.0444   15.4254 C.3     1  UNL1        0.2210
      2 C          62.9582   83.3520   14.1056 C.3     1  UNL1        0.0982
      3 C          62.2764   82.0398   13.8541 C.3     1  UNL1        0.0196
      4 C          62.4456   81.3475   12.5343 C.3     1  UNL1        0.0029
      5 C          63.2966   81.9673   11.4658 C.3     1  UNL1        0.0158
      6 C          64.1477   82.5872   10.3975 C.3     1  UNL1        0.0170
      7 C          63.9785   83.2795   11.7173 C.3     1  UNL1        0.0541
      8 N          63.8092   83.9719   13.0372 N.3     1  UNL1       -0.2966
      9 H          63.4111   84.8899   12.8392 H       1  UNL1        0.1233
     10 O          63.8881   84.9118   15.9637 O.3     1  UNL1       -0.4724
     11 C          63.0007   88.6540   16.9426 C.ar    1  UNL1        0.0238
     12 C          63.5285   89.3922   15.7482 C.ar    1  UNL1        0.0991
     13 N          64.1762   88.6369   14.6257 N.ar    1  UNL1       -0.2391
     14 C          64.2960   87.1434   14.6975 C.ar    1  UNL1        0.1356
     15 C          63.7682   86.4052   15.8919 C.ar    1  UNL1        0.1577
     16 C          63.1206   87.1605   17.0144 C.ar    1  UNL1        0.0401
@<TRIPOS>BOND
     1    11    12   ar
     2    12    13   ar
     3    13    14   ar
     4    14    15   ar
     5    15    10    1
     6    10     1    1
     7     2     1    1
     8     2     3    1
     9     3     4    1
    10     5     4    1
    11     5     6    1
    12     7     6    1
    13     7     8    1
    14    15    16   ar
    15    16    11   ar
    16     8     2    1
    17     7     5    1
    18     8     9    1
@<TRIPOS>MOLECULE
*****
 16 18 0 0 0
SMALL
GASTEIGER

@<TRIPOS>ATOM
      1 C          60.5840   87.4844   10.6672 C.3     1  UNL1        0.2210
      2 C          61.5539   86.4046   10.2887 C.3     1  UNL1        0.0982
      3 C          62.0727   86.3212    8.8838 C.3     1  UNL1        0.0196
      4 C          63.0425   85.2413    8.5052 C.3     1  UNL1        0.0029
      5 C          63.4936   84.2448    9.5317 C.3     1  UNL1        0.0158
      6 C          63.9447   83.2484   10.5582 C.3     1  UNL1        0.0170
      7 C          62.9748   84.3282   10.9367 C.3     1  UNL1        0.0541
      8 N          62.0049   85.4081   11.3151 N.3     1  UNL1       -0.2966
      9 H          62.4361   85.9393   12.0716 H       1  UNL1        0.1233
     10 O          60.9104   88.4265   11.7879 O.3     1  UNL1       -0.4724
     11 C          63.1661   91.2189   10.0957 C.ar    1  UNL1        0.0238
     12 C          64.0794   91.5726   11.2319 C.ar    1  UNL1        0.0991
     13 N          63.9364   90.8775   12.5534 N.ar    1  UNL1       -0.2391
     14 C          62.8799   89.8288   12.7387 C.ar    1  UNL1        0.1356
     15 C          61.9667   89.4752   11.6025 C.ar    1  UNL1        0.1577
     16 C          62.1098   90.1703   10.2810 C.ar    1  UNL1        0.0401
@<TRIPOS>BOND
     1    11    12   ar
     2    12    13   ar
     3    13    14   ar
     4    14    15   ar
     5    15    10    1
     6    10     1    1
     7     2     1    1
     8     2     3    1
     9     3     4    1
    10     5     4    1
    11     5     6    1
    12     7     6    1
    13     7     8    1
    14    15    16   ar
    15    16    11   ar
    16     8     2    1
    17     7     5    1
    18     8     9    1
@<TRIPOS>MOLECULE
*****
 16 18 0 0 0
SMALL
GASTEIGER

@<TRIPOS>ATOM
      1 C          61.8351   86.8969   10.8260 C.3     1  UNL1        0.2210
      2 C          62.3895   88.2587   11.1224 C.3     1  UNL1        0.0982
      3 C          62.2649   89.3564   10.1077 C.3     1  UNL1        0.0196
      4 C          62.8194   90.7182   10.4041 C.3     1  UNL1        0.0029
      5 C          63.4984   90.9825   11.7152 C.3     1  UNL1        0.0158
      6 C          64.1775   91.2467   13.0263 C.3     1  UNL1        0.0170
      7 C          63.6231   89.8849   12.7300 C.3     1  UNL1        0.0541
      8 N          63.0686   88.5229   12.4335 N.3     1  UNL1       -0.2966
      9 H          62.3878   88.3167   13.1645 H       1  UNL1        0.1233
     10 O          61.6616   85.9003   11.9337 O.3     1  UNL1       -0.4724
     11 C          64.1099   82.9637   10.8698 C.ar    1  UNL1        0.0238
     12 C          64.3948   82.3356   12.2019 C.ar    1  UNL1        0.0991
     13 N          63.7687   82.8958   13.4446 N.ar    1  UNL1       -0.2391
     14 C          62.8576   84.0841   13.3551 C.ar    1  UNL1        0.1356
     15 C          62.5727   84.7121   12.0231 C.ar    1  UNL1        0.1577
     16 C          63.1988   84.1519   10.7805 C.ar    1  UNL1        0.0401
@<TRIPOS>BOND
     1    11    12   ar
     2    12    13   ar
     3    13    14   ar
     4    14    15   ar
     5    15    10    1
     6    10     1    1
     7     2     1    1
     8     2     3    1
     9     3     4    1
    10     5     4    1
    11     5     6    1
    12     7     6    1
    13     7     8    1
    14    15    16   ar
    15    16    11   ar
    16     8     2    1
    17     7     5    1
    18     8     9    1
@<TRIPOS>MOLECULE
*****
 16 18 0 0 0
SMALL
GASTEIGER

@<TRIPOS>ATOM
      1 C          62.6122   85.4906   12.1635 C.3     1  UNL1        0.2210
      2 C          62.0561   85.7359   10.7922 C.3     1  UNL1        0.0982
      3 C          62.7924   85.2376    9.5841 C.3     1  UNL1        0.0196
      4 C          62.2363   85.4829    8.2128 C.3     1  UNL1        0.0029
      5 C          60.9439   86.2265    8.0495 C.3     1  UNL1        0.0158
      6 C          59.6514   86.9701    7.8864 C.3     1  UNL1        0.0170
      7 C          60.2075   86.7248    9.2577 C.3     1  UNL1        0.0541
      8 N          60.7637   86.4795   10.6290 N.3     1  UNL1       -0.2966
      9 H          60.0559   85.9564   11.1446 H       1  UNL1        0.1233
     10 O          63.6002   84.3838   12.3853 O.3     1  UNL1       -0.4724
     11 C          62.7445   80.5136   12.1879 C.ar    1  UNL1        0.0238
     12 C          62.1606   80.2825   13.5502 C.ar    1  UNL1        0.0991
     13 N          62.0567   81.4186   14.5242 N.ar    1  UNL1       -0.2391
     14 C          62.5366   82.7857   14.1358 C.ar    1  UNL1        0.1356
     15 C          63.1204   83.0168   12.7736 C.ar    1  UNL1        0.1577
     16 C          63.2243   81.8807   11.7996 C.ar    1  UNL1        0.0401
@<TRIPOS>BOND
     1    11    12   ar
     2    12    13   ar
     3    13    14   ar
     4    14    15   ar
     5    15    10    1
     6    10     1    1
     7     2     1    1
     8     2     3    1
     9     3     4    1
    10     5     4    1
    11     5     6    1
    12     7     6    1
    13     7     8    1
    14    15    16   ar
    15    16    11   ar
    16     8     2    1
    17     7     5    1
    18     8     9    1
