@<TRIPOS>MOLECULE
*****
 29 31 0 0 0
SMALL
GASTEIGER

@<TRIPOS>ATOM
      1 C          58.9751   89.3041    6.8770 C.3     1  UNL1        0.0327
      2 C          59.7882   88.5247    7.8677 C.ar    1  UNL1       -0.0013
      3 C          59.8665   87.0304    7.7635 C.ar    1  UNL1        0.0946
      4 N          60.6795   86.2510    8.7542 N.ar    1  UNL1       -0.2425
      5 C          61.4144   86.9660    9.8491 C.ar    1  UNL1        0.1028
      6 C          62.2885   86.4689   10.9621 C.ar    1  UNL1        0.0895
      7 C          62.7505   87.6559   11.7542 C.ar    1  UNL1        0.0823
      8 N          62.1619   88.8867   11.1307 N.ar    1  UNL1       -0.3190
      9 C          61.3361   88.4603    9.9533 C.ar    1  UNL1        0.0780
     10 C          60.5230   89.2396    8.9626 C.ar    1  UNL1        0.0160
     11 C          62.6391   85.0362   11.2351 C.2     1  UNL1        0.2489
     12 O          63.1640   84.1687   10.1297 O.2     1  UNL1       -0.2700
     13 N          62.4647   84.4709   12.6135 N.am    1  UNL1       -0.2984
     14 H          62.1201   85.0402   13.3390 H       1  UNL1        0.1498
     15 C          62.8153   83.0382   12.8864 C.3     1  UNL1        0.1215
     16 C          64.2535   82.6163   12.9464 C.3     1  UNL1        0.1583
     17 O          65.0521   82.4928   11.6827 O.3     1  UNL1       -0.3802
     18 H          64.6936   81.7710   11.1428 H       1  UNL1        0.2105
     19 C          62.3636   90.2964   11.6019 C.3     1  UNL1        0.1517
     20 C          63.2140   90.5700   12.8069 C.ar    1  UNL1        0.0823
     21 N          62.8185   90.0189   14.1448 N.ar    1  UNL1       -0.2266
     22 C          63.6689   90.2924   15.3498 C.ar    1  UNL1        0.1998
     23 N          64.9148   91.1171   15.2170 N.ar    1  UNL1       -0.2093
     24 C          65.3102   91.6683   13.8791 C.ar    1  UNL1        0.1307
     25 C          64.4599   91.3947   12.6740 C.ar    1  UNL1        0.0253
     26 C          64.8554   91.9459   11.3362 C.3     1  UNL1        0.0353
     27 N          66.5561   92.4930   13.7463 N.pl3   1  UNL1       -0.2899
     28 C          66.4807   93.9876   13.8490 C.3     1  UNL1        0.1136
     29 C          67.8774   91.8232   13.5107 C.3     1  UNL1        0.1136
@<TRIPOS>BOND
     1     1     2    1
     2     2     3   ar
     3     3     4   ar
     4     4     5   ar
     5     5     6   ar
     6     6    11    1
     7    11    12    2
     8    11    13   am
     9    13    15    1
    10    15    16    1
    11    16    17    1
    12     6     7   ar
    13     7     8   ar
    14     8    19    1
    15    19    20    1
    16    20    21   ar
    17    21    22   ar
    18    22    23   ar
    19    23    24   ar
    20    24    27    1
    21    27    28    1
    22    27    29    1
    23    24    25   ar
    24    25    26    1
    25     8     9   ar
    26     9    10   ar
    27    10     2   ar
    28     9     5   ar
    29    25    20   ar
    30    13    14    1
    31    17    18    1
@<TRIPOS>MOLECULE
*****
 29 31 0 0 0
SMALL
GASTEIGER

@<TRIPOS>ATOM
      1 C          64.7803   85.7401   15.2044 C.3     1  UNL1        0.0327
      2 C          64.0686   86.3905   14.0553 C.ar    1  UNL1       -0.0013
      3 C          63.3730   85.5460   13.0292 C.ar    1  UNL1        0.0946
      4 N          62.6613   86.1963   11.8800 N.ar    1  UNL1       -0.2425
      5 C          62.6452   87.6911   11.7570 C.ar    1  UNL1        0.1028
      6 C          62.0306   88.6081   10.7414 C.ar    1  UNL1        0.0895
      7 C          62.3465   90.0193   11.1398 C.ar    1  UNL1        0.0823
      8 N          63.1562   89.9746   12.4016 N.ar    1  UNL1       -0.3190
      9 C          63.3408   88.5356   12.7831 C.ar    1  UNL1        0.0780
     10 C          64.0525   87.8853   13.9322 C.ar    1  UNL1        0.0160
     11 C          61.2392   88.1876    9.5385 C.2     1  UNL1        0.2489
     12 O          60.5067   89.2141    8.7263 O.2     1  UNL1       -0.2700
     13 N          61.1803   86.7406    9.1479 N.am    1  UNL1       -0.2984
     14 H          61.6610   86.0668    9.6809 H       1  UNL1        0.1498
     15 C          60.3889   86.3201    7.9450 C.3     1  UNL1        0.1215
     16 C          58.9282   86.6496    7.8556 C.3     1  UNL1        0.1583
     17 O          58.4873   87.9391    7.2289 O.3     1  UNL1       -0.3802
     18 H          58.7884   88.6830    7.7739 H       1  UNL1        0.2105
     19 C          63.6879   91.1605   13.1505 C.3     1  UNL1        0.1517
     20 C          65.1245   91.5630   12.9952 C.ar    1  UNL1        0.0823
     21 N          66.0927   91.3362   14.1182 N.ar    1  UNL1       -0.2266
     22 C          67.5292   91.7387   13.9629 C.ar    1  UNL1        0.1998
     23 N          67.9978   92.3681   12.6845 N.ar    1  UNL1       -0.2093
     24 C          67.0296   92.5949   11.5614 C.ar    1  UNL1        0.1307
     25 C          65.5930   92.1924   11.7167 C.ar    1  UNL1        0.0253
     26 C          64.6250   92.4192   10.5936 C.3     1  UNL1        0.0353
     27 N          67.4981   93.2243   10.2830 N.pl3   1  UNL1       -0.2899
     28 C          68.2836   92.4162    9.2930 C.3     1  UNL1        0.1136
     29 C          67.1812   94.6617    9.9945 C.3     1  UNL1        0.1136
@<TRIPOS>BOND
     1     1     2    1
     2     2     3   ar
     3     3     4   ar
     4     4     5   ar
     5     5     6   ar
     6     6    11    1
     7    11    12    2
     8    11    13   am
     9    13    15    1
    10    15    16    1
    11    16    17    1
    12     6     7   ar
    13     7     8   ar
    14     8    19    1
    15    19    20    1
    16    20    21   ar
    17    21    22   ar
    18    22    23   ar
    19    23    24   ar
    20    24    27    1
    21    27    28    1
    22    27    29    1
    23    24    25   ar
    24    25    26    1
    25     8     9   ar
    26     9    10   ar
    27    10     2   ar
    28     9     5   ar
    29    25    20   ar
    30    13    14    1
    31    17    18    1
@<TRIPOS>MOLECULE
*****
 29 31 0 0 0
SMALL
GASTEIGER

@<TRIPOS>ATOM
      1 C          63.1704   89.5523   16.7515 C.3     1  UNL1        0.0327
      2 C          63.6562   90.2257   15.5024 C.ar    1  UNL1       -0.0013
      3 C          64.9097   91.0491   15.5332 C.ar    1  UNL1        0.0946
      4 N          65.3955   91.7225   14.2840 N.ar    1  UNL1       -0.2425
      5 C          64.6280   91.5726   13.0040 C.ar    1  UNL1        0.1028
      6 C          64.8606   92.1145   11.6248 C.ar    1  UNL1        0.0895
      7 C          63.7509   91.6261   10.7416 C.ar    1  UNL1        0.0823
      8 N          62.8324   90.7823   11.5750 N.ar    1  UNL1       -0.3190
      9 C          63.3745   90.7493   12.9733 C.ar    1  UNL1        0.0780
     10 C          62.8887   90.0759   14.2224 C.ar    1  UNL1        0.0160
     11 C          66.0024   92.9910   11.2029 C.2     1  UNL1        0.2489
     12 O          67.2958   92.9549   11.9618 O.2     1  UNL1       -0.2700
     13 N          65.8509   93.9035   10.0221 N.am    1  UNL1       -0.2984
     14 H          65.0020   93.9272    9.5240 H       1  UNL1        0.1498
     15 C          66.9928   94.7800    9.6002 C.3     1  UNL1        0.1215
     16 C          68.1955   94.1773    8.9368 C.3     1  UNL1        0.1583
     17 O          69.2048   93.4259    9.7534 O.3     1  UNL1       -0.3802
     18 H          69.6456   94.0368   10.3645 H       1  UNL1        0.2105
     19 C          61.5901   90.0927   11.0945 C.3     1  UNL1        0.1517
     20 C          61.6212   88.6272   10.7760 C.ar    1  UNL1        0.0823
     21 N          62.3093   87.6721   11.7056 N.ar    1  UNL1       -0.2266
     22 C          62.3404   86.2067   11.3871 C.ar    1  UNL1        0.1998
     23 N          61.6835   85.6963   10.1390 N.ar    1  UNL1       -0.2093
     24 C          60.9954   86.6515    9.2093 C.ar    1  UNL1        0.1307
     25 C          60.9642   88.1169    9.5278 C.ar    1  UNL1        0.0253
     26 C          60.2761   89.0720    8.5981 C.3     1  UNL1        0.0353
     27 N          60.3384   86.1410    7.9612 N.pl3   1  UNL1       -0.2899
     28 C          58.9047   86.4780    7.6766 C.3     1  UNL1        0.1136
     29 C          61.1151   85.2937    6.9975 C.3     1  UNL1        0.1136
@<TRIPOS>BOND
     1     1     2    1
     2     2     3   ar
     3     3     4   ar
     4     4     5   ar
     5     5     6   ar
     6     6    11    1
     7    11    12    2
     8    11    13   am
     9    13    15    1
    10    15    16    1
    11    16    17    1
    12     6     7   ar
    13     7     8   ar
    14     8    19    1
    15    19    20    1
    16    20    21   ar
    17    21    22   ar
    18    22    23   ar
    19    23    24   ar
    20    24    27    1
    21    27    28    1
    22    27    29    1
    23    24    25   ar
    24    25    26    1
    25     8     9   ar
    26     9    10   ar
    27    10     2   ar
    28     9     5   ar
    29    25    20   ar
    30    13    14    1
    31    17    18    1
@<TRIPOS>MOLECULE
*****
 29 31 0 0 0
SMALL
GASTEIGER

@<TRIPOS>ATOM
      1 C          63.6766   90.4309   13.4635 C.3     1  UNL1        0.0327
      2 C          62.8959   89.7679   12.3676 C.ar    1  UNL1       -0.0013
      3 C          61.9027   90.5596   11.5697 C.ar    1  UNL1        0.0946
      4 N          61.1219   89.8966   10.4738 N.ar    1  UNL1       -0.2425
      5 C          61.3343   88.4419   10.1760 C.ar    1  UNL1        0.1028
      6 C          60.7153   87.5238    9.1642 C.ar    1  UNL1        0.0895
      7 C          61.3259   86.1646    9.3368 C.ar    1  UNL1        0.0823
      8 N          62.3223   86.2427   10.4553 N.ar    1  UNL1       -0.3190
      9 C          62.3274   87.6503   10.9740 C.ar    1  UNL1        0.0780
     10 C          63.1082   88.3133   12.0698 C.ar    1  UNL1        0.0160
     11 C          59.6693   87.8989    8.1566 C.2     1  UNL1        0.2489
     12 O          58.5745   86.9317    7.8165 O.2     1  UNL1       -0.2700
     13 N          59.7182   89.2413    7.4891 N.am    1  UNL1       -0.2984
     14 H          60.4369   89.8762    7.7123 H       1  UNL1        0.1498
     15 C          58.6723   89.6165    6.4816 C.3     1  UNL1        0.1215
     16 C          58.8597   90.8321    5.6230 C.3     1  UNL1        0.1583
     17 O          57.6791   91.6831    5.2597 O.3     1  UNL1       -0.3802
     18 H          57.0769   91.1757    4.6934 H       1  UNL1        0.2105
     19 C          63.1655   85.1120   10.9657 C.3     1  UNL1        0.1517
     20 C          62.8912   84.5227   12.3175 C.ar    1  UNL1        0.0823
     21 N          62.9357   85.3931   13.5382 N.ar    1  UNL1       -0.2266
     22 C          62.6615   84.8038   14.8901 C.ar    1  UNL1        0.1998
     23 N          62.3426   83.3439   15.0212 N.ar    1  UNL1       -0.2093
     24 C          62.2981   82.4734   13.8004 C.ar    1  UNL1        0.1307
     25 C          62.5723   83.0628   12.4485 C.ar    1  UNL1        0.0253
     26 C          62.5278   82.1922   11.2278 C.3     1  UNL1        0.0353
     27 N          61.9792   81.0136   13.9315 N.pl3   1  UNL1       -0.2899
     28 C          63.0804   79.9969   13.8700 C.3     1  UNL1        0.1136
     29 C          60.5592   80.5704   14.1241 C.3     1  UNL1        0.1136
@<TRIPOS>BOND
     1     1     2    1
     2     2     3   ar
     3     3     4   ar
     4     4     5   ar
     5     5     6   ar
     6     6    11    1
     7    11    12    2
     8    11    13   am
     9    13    15    1
    10    15    16    1
    11    16    17    1
    12     6     7   ar
    13     7     8   ar
    14     8    19    1
    15    19    20    1
    16    20    21   ar
    17    21    22   ar
    18    22    23   ar
    19    23    24   ar
    20    24    27    1
    21    27    28    1
    22    27    29    1
    23    24    25   ar
    24    25    26    1
    25     8     9   ar
    26     9    10   ar
    27    10     2   ar
    28     9     5   ar
    29    25    20   ar
    30    13    14    1
    31    17    18    1
@<TRIPOS>MOLECULE
*****
 29 31 0 0 0
SMALL
GASTEIGER

@<TRIPOS>ATOM
      1 C          63.4625   89.6059   16.4324 C.3     1  UNL1        0.0327
      2 C          63.8324   90.2495   15.1290 C.ar    1  UNL1       -0.0013
      3 C          65.1491   90.9539   14.9874 C.ar    1  UNL1        0.0946
      4 N          65.5191   91.5974   13.6839 N.ar    1  UNL1       -0.2425
      5 C          64.5723   91.5366   12.5221 C.ar    1  UNL1        0.1028
      6 C          64.6624   92.0742   11.1247 C.ar    1  UNL1        0.0895
      7 C          63.4014   91.7020   10.4026 C.ar    1  UNL1        0.0823
      8 N          62.5319   90.9344   11.3538 N.ar    1  UNL1       -0.3190
      9 C          63.2556   90.8322   12.6637 C.ar    1  UNL1        0.0780
     10 C          62.8857   90.1886   13.9672 C.ar    1  UNL1        0.0160
     11 C          65.8118   92.8481   10.5502 C.2     1  UNL1        0.2489
     12 O          65.7119   94.3369   10.3974 O.2     1  UNL1       -0.2700
     13 N          67.0612   92.1331   10.1284 N.am    1  UNL1       -0.2984
     14 H          67.1268   91.1559   10.2286 H       1  UNL1        0.1498
     15 C          68.2105   92.9070    9.5539 C.3     1  UNL1        0.1215
     16 C          67.9638   93.9427    8.4973 C.3     1  UNL1        0.1583
     17 O          68.0009   95.3997    8.8520 O.3     1  UNL1       -0.3802
     18 H          67.2686   95.6046    9.4543 H       1  UNL1        0.2105
     19 C          61.1767   90.3684   11.0486 C.3     1  UNL1        0.1517
     20 C          61.0414   89.2195   10.0939 C.ar    1  UNL1        0.0823
     21 N          60.1520   89.3433    8.8925 N.ar    1  UNL1       -0.2266
     22 C          60.0167   88.1944    7.9377 C.ar    1  UNL1        0.1998
     23 N          60.7709   86.9214    8.1844 N.ar    1  UNL1       -0.2093
     24 C          61.6604   86.7976    9.3859 C.ar    1  UNL1        0.1307
     25 C          61.7957   87.9465   10.3407 C.ar    1  UNL1        0.0253
     26 C          62.6852   87.8226   11.5421 C.3     1  UNL1        0.0353
     27 N          62.4146   85.5246    9.6326 N.pl3   1  UNL1       -0.2899
     28 C          62.3224   84.8447   10.9665 C.3     1  UNL1        0.1136
     29 C          63.2609   84.9316    8.5454 C.3     1  UNL1        0.1136
@<TRIPOS>BOND
     1     1     2    1
     2     2     3   ar
     3     3     4   ar
     4     4     5   ar
     5     5     6   ar
     6     6    11    1
     7    11    12    2
     8    11    13   am
     9    13    15    1
    10    15    16    1
    11    16    17    1
    12     6     7   ar
    13     7     8   ar
    14     8    19    1
    15    19    20    1
    16    20    21   ar
    17    21    22   ar
    18    22    23   ar
    19    23    24   ar
    20    24    27    1
    21    27    28    1
    22    27    29    1
    23    24    25   ar
    24    25    26    1
    25     8     9   ar
    26     9    10   ar
    27    10     2   ar
    28     9     5   ar
    29    25    20   ar
    30    13    14    1
    31    17    18    1
@<TRIPOS>MOLECULE
*****
 29 31 0 0 0
SMALL
GASTEIGER

@<TRIPOS>ATOM
      1 C          64.7805   90.1393   14.7382 C.3     1  UNL1        0.0327
      2 C          63.8855   89.7611   13.5954 C.ar    1  UNL1       -0.0013
      3 C          63.0342   90.8033   12.9328 C.ar    1  UNL1        0.0946
      4 N          62.1392   90.4251   11.7899 N.ar    1  UNL1       -0.2425
      5 C          62.0956   89.0047   11.3098 C.ar    1  UNL1        0.1028
      6 C          61.3171   88.3391   10.2138 C.ar    1  UNL1        0.0895
      7 C          61.6873   86.8856   10.1991 C.ar    1  UNL1        0.0823
      8 N          62.6946   86.6528   11.2860 N.ar    1  UNL1       -0.3190
      9 C          62.9469   87.9625   11.9724 C.ar    1  UNL1        0.0780
     10 C          63.8418   88.3407   13.1152 C.ar    1  UNL1        0.0160
     11 C          60.3400   89.0095    9.2941 C.2     1  UNL1        0.2489
     12 O          59.7389   90.3306    9.6723 O.2     1  UNL1       -0.2700
     13 N          59.9640   88.3586    7.9960 N.am    1  UNL1       -0.2984
     14 H          60.3585   87.4914    7.7477 H       1  UNL1        0.1498
     15 C          58.9869   89.0289    7.0763 C.3     1  UNL1        0.1215
     16 C          59.4685   90.0396    6.0781 C.3     1  UNL1        0.1583
     17 O          58.7069   91.3160    5.8760 O.3     1  UNL1       -0.3802
     18 H          57.8362   91.1166    5.4978 H       1  UNL1        0.2105
     19 C          63.3368   85.3408   11.6266 C.3     1  UNL1        0.1517
     20 C          62.9499   84.6205   12.8842 C.ar    1  UNL1        0.0823
     21 N          62.9354   85.3523   14.1934 N.ar    1  UNL1       -0.2266
     22 C          62.5485   84.6320   15.4510 C.ar    1  UNL1        0.1998
     23 N          62.1762   83.1799   15.3994 N.ar    1  UNL1       -0.2093
     24 C          62.1907   82.4481   14.0900 C.ar    1  UNL1        0.1307
     25 C          62.5776   83.1683   12.8324 C.ar    1  UNL1        0.0253
     26 C          62.5922   82.4365   11.5232 C.3     1  UNL1        0.0353
     27 N          61.8184   80.9959   14.0384 N.pl3   1  UNL1       -0.2899
     28 C          62.8842   79.9539   13.8699 C.3     1  UNL1        0.1136
     29 C          60.3803   80.5858   14.1552 C.3     1  UNL1        0.1136
@<TRIPOS>BOND
     1     1     2    1
     2     2     3   ar
     3     3     4   ar
     4     4     5   ar
     5     5     6   ar
     6     6    11    1
     7    11    12    2
     8    11    13   am
     9    13    15    1
    10    15    16    1
    11    16    17    1
    12     6     7   ar
    13     7     8   ar
    14     8    19    1
    15    19    20    1
    16    20    21   ar
    17    21    22   ar
    18    22    23   ar
    19    23    24   ar
    20    24    27    1
    21    27    28    1
    22    27    29    1
    23    24    25   ar
    24    25    26    1
    25     8     9   ar
    26     9    10   ar
    27    10     2   ar
    28     9     5   ar
    29    25    20   ar
    30    13    14    1
    31    17    18    1
@<TRIPOS>MOLECULE
*****
 29 31 0 0 0
SMALL
GASTEIGER

@<TRIPOS>ATOM
      1 C          65.3344   90.9999   14.6184 C.3     1  UNL1        0.0327
      2 C          64.3836   90.3637   13.6483 C.ar    1  UNL1       -0.0013
      3 C          63.5635   91.2208   12.7303 C.ar    1  UNL1        0.0946
      4 N          62.6126   90.5846   11.7602 N.ar    1  UNL1       -0.2425
      5 C          62.4819   89.0912   11.7081 C.ar    1  UNL1        0.1028
      6 C          61.6346   88.1867   10.8631 C.ar    1  UNL1        0.0895
      7 C          61.9311   86.7706   11.2588 C.ar    1  UNL1        0.0823
      8 N          62.9616   86.7998   12.3484 N.ar    1  UNL1       -0.3190
      9 C          63.3020   88.2341   12.6260 C.ar    1  UNL1        0.0780
     10 C          64.2529   88.8703   13.5961 C.ar    1  UNL1        0.0160
     11 C          60.6617   88.6220    9.8077 C.2     1  UNL1        0.2489
     12 O          60.0747   90.0016    9.8518 O.2     1  UNL1       -0.2700
     13 N          60.2757   87.6776    8.7081 N.am    1  UNL1       -0.2984
     14 H          60.6609   86.7720    8.6791 H       1  UNL1        0.1498
     15 C          59.3027   88.1128    7.6527 C.3     1  UNL1        0.1215
     16 C          59.5855   89.3349    6.8301 C.3     1  UNL1        0.1583
     17 O          58.5250   89.8940    5.9286 O.3     1  UNL1       -0.3802
     18 H          58.3371   89.2603    5.2186 H       1  UNL1        0.2105
     19 C          63.5487   85.6047   13.0391 C.3     1  UNL1        0.1517
     20 C          63.3634   84.2353   12.4557 C.ar    1  UNL1        0.0823
     21 N          63.7762   83.9609   11.0400 N.ar    1  UNL1       -0.2266
     22 C          63.5910   82.5915   10.4566 C.ar    1  UNL1        0.1998
     23 N          62.9929   81.4963   11.2890 N.ar    1  UNL1       -0.2093
     24 C          62.5801   81.7707   12.7048 C.ar    1  UNL1        0.1307
     25 C          62.7654   83.1401   13.2882 C.ar    1  UNL1        0.0253
     26 C          62.3526   83.4143   14.7039 C.3     1  UNL1        0.0353
     27 N          61.9820   80.6755   13.5372 N.pl3   1  UNL1       -0.2899
     28 C          62.7943   79.4600   13.8732 C.3     1  UNL1        0.1136
     29 C          60.5717   80.7957   14.0336 C.3     1  UNL1        0.1136
@<TRIPOS>BOND
     1     1     2    1
     2     2     3   ar
     3     3     4   ar
     4     4     5   ar
     5     5     6   ar
     6     6    11    1
     7    11    12    2
     8    11    13   am
     9    13    15    1
    10    15    16    1
    11    16    17    1
    12     6     7   ar
    13     7     8   ar
    14     8    19    1
    15    19    20    1
    16    20    21   ar
    17    21    22   ar
    18    22    23   ar
    19    23    24   ar
    20    24    27    1
    21    27    28    1
    22    27    29    1
    23    24    25   ar
    24    25    26    1
    25     8     9   ar
    26     9    10   ar
    27    10     2   ar
    28     9     5   ar
    29    25    20   ar
    30    13    14    1
    31    17    18    1
@<TRIPOS>MOLECULE
*****
 29 31 0 0 0
SMALL
GASTEIGER

@<TRIPOS>ATOM
      1 C          62.9132   79.3650    9.9699 C.3     1  UNL1        0.0327
      2 C          62.9094   80.5492   10.8906 C.ar    1  UNL1       -0.0013
      3 C          62.9437   80.3442   12.3761 C.ar    1  UNL1        0.0946
      4 N          62.9398   81.5283   13.2969 N.ar    1  UNL1       -0.2425
      5 C          62.9016   82.9174   12.7322 C.ar    1  UNL1        0.1028
      6 C          62.8891   84.2670   13.3867 C.ar    1  UNL1        0.0895
      7 C          62.8471   85.3061   12.3057 C.ar    1  UNL1        0.0823
      8 N          62.8337   84.5987   10.9831 N.ar    1  UNL1       -0.3190
      9 C          62.8673   83.1224   11.2467 C.ar    1  UNL1        0.0780
     10 C          62.8712   81.9382   10.3259 C.ar    1  UNL1        0.0160
     11 C          62.9143   84.5312   14.8630 C.2     1  UNL1        0.2489
     12 O          62.2538   83.5716   15.8080 O.2     1  UNL1       -0.2700
     13 N          63.5998   85.7549   15.3945 N.am    1  UNL1       -0.2984
     14 H          64.0333   86.3848   14.7743 H       1  UNL1        0.1498
     15 C          63.6249   86.0191   16.8708 C.3     1  UNL1        0.1215
     16 C          62.4261   86.6162   17.5464 C.3     1  UNL1        0.1583
     17 O          61.0463   86.2590   17.0790 O.3     1  UNL1       -0.3802
     18 H          60.9116   86.5978   16.1801 H       1  UNL1        0.2105
     19 C          62.7936   85.2527    9.6338 C.3     1  UNL1        0.1517
     20 C          61.7427   86.2787    9.3285 C.ar    1  UNL1        0.0823
     21 N          60.6879   85.9895    8.3021 N.ar    1  UNL1       -0.2266
     22 C          59.6371   87.0155    7.9969 C.ar    1  UNL1        0.1998
     23 N          59.6411   88.3307    8.7182 N.ar    1  UNL1       -0.2093
     24 C          60.6960   88.6199    9.7447 C.ar    1  UNL1        0.1307
     25 C          61.7468   87.5939   10.0499 C.ar    1  UNL1        0.0253
     26 C          62.8016   87.8831   11.0764 C.3     1  UNL1        0.0353
     27 N          60.7000   89.9351   10.4659 N.pl3   1  UNL1       -0.2899
     28 C          59.5092   90.3481   11.2792 C.3     1  UNL1        0.1136
     29 C          61.8948   90.8372   10.3740 C.3     1  UNL1        0.1136
@<TRIPOS>BOND
     1     1     2    1
     2     2     3   ar
     3     3     4   ar
     4     4     5   ar
     5     5     6   ar
     6     6    11    1
     7    11    12    2
     8    11    13   am
     9    13    15    1
    10    15    16    1
    11    16    17    1
    12     6     7   ar
    13     7     8   ar
    14     8    19    1
    15    19    20    1
    16    20    21   ar
    17    21    22   ar
    18    22    23   ar
    19    23    24   ar
    20    24    27    1
    21    27    28    1
    22    27    29    1
    23    24    25   ar
    24    25    26    1
    25     8     9   ar
    26     9    10   ar
    27    10     2   ar
    28     9     5   ar
    29    25    20   ar
    30    13    14    1
    31    17    18    1
@<TRIPOS>MOLECULE
*****
 29 31 0 0 0
SMALL
GASTEIGER

@<TRIPOS>ATOM
      1 C          65.4136   95.9879   -1.3905 C.3     1  UNL1        0.0327
      2 C          64.3054   95.3702   -0.5901 C.ar    1  UNL1       -0.0013
      3 C          64.6213   94.5944    0.6541 C.ar    1  UNL1        0.0946
      4 N          63.5132   93.9767    1.4545 N.ar    1  UNL1       -0.2425
      5 C          62.0892   94.1349    1.0106 C.ar    1  UNL1        0.1028
      6 C          60.7964   93.6429    1.5908 C.ar    1  UNL1        0.0895
      7 C          59.6815   94.1147    0.7050 C.ar    1  UNL1        0.0823
      8 N          60.2852   94.8983   -0.4226 N.ar    1  UNL1       -0.3190
      9 C          61.7733   94.9108   -0.2337 C.ar    1  UNL1        0.0780
     10 C          62.8814   95.5284   -1.0341 C.ar    1  UNL1        0.0160
     11 C          60.6451   92.8231    2.8377 C.2     1  UNL1        0.2489
     12 O          61.7953   92.0013    3.3393 O.2     1  UNL1       -0.2700
     13 N          59.3435   92.8250    3.5832 N.am    1  UNL1       -0.2984
     14 H          58.5885   93.3644    3.2541 H       1  UNL1        0.1498
     15 C          59.1922   92.0052    4.8302 C.3     1  UNL1        0.1215
     16 C          57.8836   91.3385    5.1353 C.3     1  UNL1        0.1583
     17 O          56.6162   92.1409    5.1404 O.3     1  UNL1       -0.3802
     18 H          56.6437   92.7841    5.8660 H       1  UNL1        0.2105
     19 C          59.5330   95.5542   -1.5424 C.3     1  UNL1        0.1517
     20 C          58.1233   95.1393   -1.8430 C.ar    1  UNL1        0.0823
     21 N          56.9751   95.9546   -1.3263 N.ar    1  UNL1       -0.2266
     22 C          55.5653   95.5397   -1.6270 C.ar    1  UNL1        0.1998
     23 N          55.3037   94.3095   -2.4443 N.ar    1  UNL1       -0.2093
     24 C          56.4519   93.4942   -2.9611 C.ar    1  UNL1        0.1307
     25 C          57.8617   93.9091   -2.6604 C.ar    1  UNL1        0.0253
     26 C          59.0098   93.0937   -3.1772 C.3     1  UNL1        0.0353
     27 N          56.1902   92.2640   -3.7784 N.pl3   1  UNL1       -0.2899
     28 C          55.9419   90.9503   -3.0982 C.3     1  UNL1        0.1136
     29 C          56.1768   92.3474   -5.2760 C.3     1  UNL1        0.1136
@<TRIPOS>BOND
     1     1     2    1
     2     2     3   ar
     3     3     4   ar
     4     4     5   ar
     5     5     6   ar
     6     6    11    1
     7    11    12    2
     8    11    13   am
     9    13    15    1
    10    15    16    1
    11    16    17    1
    12     6     7   ar
    13     7     8   ar
    14     8    19    1
    15    19    20    1
    16    20    21   ar
    17    21    22   ar
    18    22    23   ar
    19    23    24   ar
    20    24    27    1
    21    27    28    1
    22    27    29    1
    23    24    25   ar
    24    25    26    1
    25     8     9   ar
    26     9    10   ar
    27    10     2   ar
    28     9     5   ar
    29    25    20   ar
    30    13    14    1
    31    17    18    1
