@<TRIPOS>MOLECULE
*****
 37 42 0 0 0
SMALL
GASTEIGER

@<TRIPOS>ATOM
      1 C          63.7044   84.2748   13.9261 C.2     1  UNL1        0.1558
      2 N          64.4506   84.7751   15.1273 N.2     1  UNL1       -0.2402
      3 C          64.4960   86.2727   15.0540 C.2     1  UNL1        0.0929
      4 C          63.7779   86.6978   13.8076 C.2     1  UNL1        0.0093
      5 C          63.2887   85.4631   13.1105 C.3     1  UNL1        0.1374
      6 N          62.5278   85.5803   11.8231 N.pl3   1  UNL1       -0.3295
      7 C          62.2562   86.9323   11.2328 C.2     1  UNL1        0.0215
      8 C          62.7455   88.1670   11.9300 C.2     1  UNL1        0.0322
      9 C          62.4739   89.5190   11.3397 C.2     1  UNL1        0.1707
     10 O          62.9632   90.7538   12.0368 O.2     1  UNL1       -0.2916
     11 C          61.7131   89.6362   10.0524 C.3     1  UNL1        0.0693
     12 C          61.2238   88.4014    9.3552 C.3     1  UNL1        0.0141
     13 C          61.4954   87.0495    9.9455 C.3     1  UNL1        0.0411
     14 C          63.5064   88.0498   13.2174 C.3     1  UNL1        0.1049
     15 H          62.2067   84.7699   11.3656 H       1  UNL1        0.1471
     16 C          63.9956   89.2846   13.9145 C.ar    1  UNL1        0.1312
     17 C          63.5209   89.7936   15.2432 C.ar    1  UNL1        0.0373
     18 C          64.2774   91.0507   15.5553 C.ar    1  UNL1        0.0472
     19 C          65.2197   91.3187   14.4193 C.ar    1  UNL1        0.1774
     20 O          65.0455   90.2271   13.4053 O.2     1  UNL1       -0.4506
     21 S          66.1693   92.4751   14.3156 S.3     1  UNL1       -0.0117
     22 C          66.4759   93.0759   12.9759 C.2     1  UNL1        0.1967
     23 N          67.1590   92.3830   11.8344 N.2     1  UNL1       -0.2174
     24 C          67.2586   93.3541   10.6953 C.2     1  UNL1        0.1248
     25 C          67.8349   93.2279    9.3163 C.2     1  UNL1        0.1608
     26 F          68.4564   91.9348    8.8786 F       1  UNL1       -0.2025
     27 C          67.7896   94.3948    8.3749 C.2     1  UNL1        0.0568
     28 C          67.1681   95.6878    8.8125 C.2     1  UNL1        0.1259
     29 F          67.1229   96.8548    7.8712 F       1  UNL1       -0.2084
     30 C          66.5918   95.8141   10.1917 C.3     1  UNL1        0.1040
     31 C          66.6370   94.6472   11.1330 C.2     1  UNL1        0.0877
     32 N          66.1534   94.4752   12.5425 N.2     1  UNL1       -0.2233
     33 C          63.4233   82.8384   13.5981 C.2     1  UNL1        0.3569
     34 O          63.8682   81.7543   14.5344 O.2     1  UNL1       -0.2435
     35 O          62.6972   82.4860   12.3337 O.3     1  UNL1       -0.4446
     36 C          64.3764   82.9781   10.4132 C.3     1  UNL1        0.0513
     37 C          63.4660   82.0261   11.1305 C.3     1  UNL1        0.2089
@<TRIPOS>BOND
     1    36    37    1
     2    37    35    1
     3    35    33    1
     4    33    34    2
     5    33     1    1
     6     1     2    2
     7     2     3    1
     8     3     4    2
     9     4     5    1
    10     5     6    1
    11     6     7    1
    12     7     8    2
    13     8     9    1
    14     9    10    2
    15     9    11    1
    16    11    12    1
    17    12    13    1
    18     8    14    1
    19    14    16    1
    20    16    17   ar
    21    17    18   ar
    22    18    19   ar
    23    19    21    1
    24    21    22    1
    25    22    23    2
    26    23    24    1
    27    24    25    2
    28    25    26    1
    29    25    27    1
    30    27    28    2
    31    28    29    1
    32    28    30    1
    33    30    31    1
    34    31    32    2
    35    19    20   ar
    36     5     1    1
    37    13     7    1
    38    20    16   ar
    39    14     4    1
    40    32    22    1
    41    31    24    1
    42     6    15    1
@<TRIPOS>MOLECULE
*****
 37 42 0 0 0
SMALL
GASTEIGER

@<TRIPOS>ATOM
      1 C          66.0817   93.4518   12.2649 C.2     1  UNL1        0.1558
      2 N          66.5997   93.1280   13.6349 N.2     1  UNL1       -0.2402
      3 C          65.8938   91.8958   14.1180 C.2     1  UNL1        0.0929
      4 C          64.9396   91.4580   13.0467 C.2     1  UNL1        0.0093
      5 C          65.0557   92.4197   11.9014 C.3     1  UNL1        0.1374
      6 N          64.2122   92.2313   10.6754 N.pl3   1  UNL1       -0.3295
      7 C          63.2525   91.0813   10.5947 C.2     1  UNL1        0.0215
      8 C          63.1364   90.1196   11.7401 C.2     1  UNL1        0.0322
      9 C          62.1768   88.9696   11.6594 C.2     1  UNL1        0.1707
     10 O          62.0607   88.0079   12.8047 O.2     1  UNL1       -0.2916
     11 C          61.3333   88.7812   10.4335 C.3     1  UNL1        0.0693
     12 C          61.4494   89.7429    9.2882 C.3     1  UNL1        0.0141
     13 C          62.4090   90.8929    9.3688 C.3     1  UNL1        0.0411
     14 C          63.9800   90.3080   12.9660 C.3     1  UNL1        0.1049
     15 H          64.2884   92.8625    9.9237 H       1  UNL1        0.1471
     16 C          63.8639   89.3463   14.1113 C.ar    1  UNL1        0.1312
     17 C          63.3514   89.6677   15.4839 C.ar    1  UNL1        0.0373
     18 C          63.4106   88.4144   16.3061 C.ar    1  UNL1        0.0472
     19 C          63.9598   87.3185   15.4416 C.ar    1  UNL1        0.1774
     20 O          64.2399   87.8945   14.0852 O.2     1  UNL1       -0.4506
     21 S          64.1887   85.8964   15.8599 S.3     1  UNL1       -0.0117
     22 C          63.9183   84.7785   14.8971 C.2     1  UNL1        0.1967
     23 N          64.0278   84.8558   13.4031 N.2     1  UNL1       -0.2174
     24 C          63.6680   83.5121   12.8417 C.2     1  UNL1        0.1248
     25 C          63.5998   82.9979   11.4343 C.2     1  UNL1        0.1608
     26 F          63.9317   83.9057   10.2872 F       1  UNL1       -0.2025
     27 C          63.1995   81.5759   11.1739 C.2     1  UNL1        0.0568
     28 C          62.8676   80.6682   12.3210 C.2     1  UNL1        0.1259
     29 F          62.4673   79.2463   12.0606 F       1  UNL1       -0.2084
     30 C          62.9358   81.1824   13.7285 C.3     1  UNL1        0.1040
     31 C          63.3360   82.6044   13.9888 C.2     1  UNL1        0.0877
     32 N          63.4907   83.3871   15.2591 N.2     1  UNL1       -0.2233
     33 C          66.5138   94.6052   11.4088 C.2     1  UNL1        0.3569
     34 O          65.8266   95.9324   11.5360 O.2     1  UNL1       -0.2435
     35 O          67.6330   94.4313   10.4254 O.3     1  UNL1       -0.4446
     36 C          68.7275   92.3600    9.3020 C.3     1  UNL1        0.0513
     37 C          67.5812   93.3204    9.4187 C.3     1  UNL1        0.2089
@<TRIPOS>BOND
     1    36    37    1
     2    37    35    1
     3    35    33    1
     4    33    34    2
     5    33     1    1
     6     1     2    2
     7     2     3    1
     8     3     4    2
     9     4     5    1
    10     5     6    1
    11     6     7    1
    12     7     8    2
    13     8     9    1
    14     9    10    2
    15     9    11    1
    16    11    12    1
    17    12    13    1
    18     8    14    1
    19    14    16    1
    20    16    17   ar
    21    17    18   ar
    22    18    19   ar
    23    19    21    1
    24    21    22    1
    25    22    23    2
    26    23    24    1
    27    24    25    2
    28    25    26    1
    29    25    27    1
    30    27    28    2
    31    28    29    1
    32    28    30    1
    33    30    31    1
    34    31    32    2
    35    19    20   ar
    36     5     1    1
    37    13     7    1
    38    20    16   ar
    39    14     4    1
    40    32    22    1
    41    31    24    1
    42     6    15    1
@<TRIPOS>MOLECULE
*****
 37 42 0 0 0
SMALL
GASTEIGER

@<TRIPOS>ATOM
      1 C          60.8402   88.0470    9.5840 C.2     1  UNL1        0.1558
      2 N          60.9177   89.5404    9.7011 N.2     1  UNL1       -0.2402
      3 C          61.7910   89.8685   10.8758 C.2     1  UNL1        0.0929
      4 C          62.2532   88.5779   11.4846 C.2     1  UNL1        0.0093
      5 C          61.6655   87.4521   10.6863 C.3     1  UNL1        0.1374
      6 N          61.9579   86.0308   11.0661 N.pl3   1  UNL1       -0.3295
      7 C          62.8379   85.7352   12.2444 C.2     1  UNL1        0.0215
      8 C          63.4256   86.8609   13.0427 C.2     1  UNL1        0.0322
      9 C          64.3056   86.5653   14.2209 C.2     1  UNL1        0.1707
     10 O          64.8932   87.6911   15.0192 O.2     1  UNL1       -0.2916
     11 C          64.5979   85.1440   14.6007 C.3     1  UNL1        0.0693
     12 C          64.0103   84.0183   13.8024 C.3     1  UNL1        0.0141
     13 C          63.1303   84.3138   12.6242 C.3     1  UNL1        0.0411
     14 C          63.1332   88.2823   12.6628 C.3     1  UNL1        0.1049
     15 H          61.5722   85.2919   10.5421 H       1  UNL1        0.1471
     16 C          63.7208   89.4080   13.4611 C.ar    1  UNL1        0.1312
     17 C          63.3798   89.7546   14.8801 C.ar    1  UNL1        0.0373
     18 C          64.2009   90.9456   15.2767 C.ar    1  UNL1        0.0472
     19 C          65.0495   91.3352   14.1027 C.ar    1  UNL1        0.1774
     20 O          64.7528   90.3849   12.9807 O.2     1  UNL1       -0.4506
     21 S          66.0237   92.4749   14.0585 S.3     1  UNL1       -0.0117
     22 C          66.4147   93.0767   12.7414 C.2     1  UNL1        0.1967
     23 N          67.1771   92.3875   11.6488 N.2     1  UNL1       -0.2174
     24 C          67.3456   93.3582   10.5177 C.2     1  UNL1        0.1248
     25 C          68.0134   93.2347    9.1802 C.2     1  UNL1        0.1608
     26 F          68.6717   91.9456    8.7867 F       1  UNL1       -0.2025
     27 C          68.0229   94.4005    8.2363 C.2     1  UNL1        0.0568
     28 C          67.3647   95.6895    8.6298 C.2     1  UNL1        0.1259
     29 F          67.3741   96.8552    7.6859 F       1  UNL1       -0.2084
     30 C          66.6968   95.8130    9.9672 C.3     1  UNL1        0.1040
     31 C          66.6873   94.6473   10.9112 C.2     1  UNL1        0.0877
     32 N          66.1120   94.4732   12.2855 N.2     1  UNL1       -0.2233
     33 C          60.0721   87.2827    8.5468 C.2     1  UNL1        0.3569
     34 O          59.0418   87.9815    7.7101 O.2     1  UNL1       -0.2435
     35 O          60.3344   85.8195    8.3462 O.3     1  UNL1       -0.4446
     36 C          62.7756   85.1370    7.7764 C.3     1  UNL1        0.0513
     37 C          61.3580   85.3711    7.3456 C.3     1  UNL1        0.2089
@<TRIPOS>BOND
     1    36    37    1
     2    37    35    1
     3    35    33    1
     4    33    34    2
     5    33     1    1
     6     1     2    2
     7     2     3    1
     8     3     4    2
     9     4     5    1
    10     5     6    1
    11     6     7    1
    12     7     8    2
    13     8     9    1
    14     9    10    2
    15     9    11    1
    16    11    12    1
    17    12    13    1
    18     8    14    1
    19    14    16    1
    20    16    17   ar
    21    17    18   ar
    22    18    19   ar
    23    19    21    1
    24    21    22    1
    25    22    23    2
    26    23    24    1
    27    24    25    2
    28    25    26    1
    29    25    27    1
    30    27    28    2
    31    28    29    1
    32    28    30    1
    33    30    31    1
    34    31    32    2
    35    19    20   ar
    36     5     1    1
    37    13     7    1
    38    20    16   ar
    39    14     4    1
    40    32    22    1
    41    31    24    1
    42     6    15    1
@<TRIPOS>MOLECULE
*****
 37 42 0 0 0
SMALL
GASTEIGER

@<TRIPOS>ATOM
      1 C          63.8346   83.5395   12.7809 C.2     1  UNL1        0.1558
      2 N          64.6134   83.8511   14.0244 N.2     1  UNL1       -0.2402
      3 C          64.5448   85.3316   14.2554 C.2     1  UNL1        0.0929
      4 C          63.7235   85.9350   13.1547 C.2     1  UNL1        0.0093
      5 C          63.2846   84.8273   12.2434 C.3     1  UNL1        0.1374
      6 N          62.4408   85.1346   11.0419 N.pl3   1  UNL1       -0.3295
      7 C          62.0360   86.5495   10.7516 C.2     1  UNL1        0.0215
      8 C          62.4749   87.6571   11.6630 C.2     1  UNL1        0.0322
      9 C          62.0701   89.0720   11.3728 C.2     1  UNL1        0.1707
     10 O          62.5090   90.1796   12.2841 O.2     1  UNL1       -0.2916
     11 C          61.2264   89.3792   10.1713 C.3     1  UNL1        0.0693
     12 C          60.7874   88.2716    9.2600 C.3     1  UNL1        0.0141
     13 C          61.1922   86.8567    9.5502 C.3     1  UNL1        0.0411
     14 C          63.3187   87.3498   12.8645 C.3     1  UNL1        0.1049
     15 H          62.1528   84.4076   10.4438 H       1  UNL1        0.1471
     16 C          63.7577   88.4575   13.7758 C.ar    1  UNL1        0.1312
     17 C          63.3190   88.6566   15.1964 C.ar    1  UNL1        0.0373
     18 C          64.0025   89.8826   15.7251 C.ar    1  UNL1        0.0472
     19 C          64.8637   90.4413   14.6313 C.ar    1  UNL1        0.1774
     20 O          64.7124   89.5604   13.4267 O.2     1  UNL1       -0.4506
     21 S          65.7250   91.6657   14.7257 S.3     1  UNL1       -0.0117
     22 C          66.0388   92.4588   13.4919 C.2     1  UNL1        0.1967
     23 N          65.8141   93.9306   13.3090 N.2     1  UNL1       -0.2174
     24 C          66.2687   94.3009   11.9283 C.2     1  UNL1        0.1248
     25 C          66.2876   95.6092   11.1949 C.2     1  UNL1        0.1608
     26 F          65.7819   96.8522   11.8653 F       1  UNL1       -0.2025
     27 C          66.8122   95.6747    9.7912 C.2     1  UNL1        0.0568
     28 C          67.3179   94.4318    9.1208 C.2     1  UNL1        0.1259
     29 F          67.8425   94.4972    7.7171 F       1  UNL1       -0.2084
     30 C          67.2991   93.1234    9.8541 C.3     1  UNL1        0.1040
     31 C          66.7745   93.0580   11.2579 C.2     1  UNL1        0.0877
     32 N          66.6323   91.9195   12.2243 N.2     1  UNL1       -0.2233
     33 C          63.6398   82.1788   12.1803 C.2     1  UNL1        0.3569
     34 O          63.4307   82.0344   10.7020 O.2     1  UNL1       -0.2435
     35 O          63.6543   80.9625   13.0580 O.3     1  UNL1       -0.4446
     36 C          61.2466   81.2144   14.0012 C.3     1  UNL1        0.0513
     37 C          62.3626   80.3441   13.5042 C.3     1  UNL1        0.2089
@<TRIPOS>BOND
     1    36    37    1
     2    37    35    1
     3    35    33    1
     4    33    34    2
     5    33     1    1
     6     1     2    2
     7     2     3    1
     8     3     4    2
     9     4     5    1
    10     5     6    1
    11     6     7    1
    12     7     8    2
    13     8     9    1
    14     9    10    2
    15     9    11    1
    16    11    12    1
    17    12    13    1
    18     8    14    1
    19    14    16    1
    20    16    17   ar
    21    17    18   ar
    22    18    19   ar
    23    19    21    1
    24    21    22    1
    25    22    23    2
    26    23    24    1
    27    24    25    2
    28    25    26    1
    29    25    27    1
    30    27    28    2
    31    28    29    1
    32    28    30    1
    33    30    31    1
    34    31    32    2
    35    19    20   ar
    36     5     1    1
    37    13     7    1
    38    20    16   ar
    39    14     4    1
    40    32    22    1
    41    31    24    1
    42     6    15    1
