@<TRIPOS>MOLECULE
*****
 30 33 0 0 0
SMALL
GASTEIGER

@<TRIPOS>ATOM
      1 C          62.1509   87.2555   11.3716 C.3     1  UNL1        0.0999
      2 C          63.1602   88.2643   11.8339 C.3     1  UNL1        0.1138
      3 N          62.7322   89.6704   12.1335 N.pl3   1  UNL1       -0.2763
      4 C          61.2950   90.0677   11.9706 C.3     1  UNL1        0.1107
      5 C          60.2857   89.0590   11.5083 C.3     1  UNL1        0.0906
      6 N          60.7137   87.6528   11.2087 N.3     1  UNL1       -0.2922
      7 H          60.4662   87.4706   10.2361 H       1  UNL1        0.1236
      8 C          63.7415   90.6791   12.5959 C.ar    1  UNL1        0.2035
      9 N          64.5073   91.4885   11.5917 N.ar    1  UNL1       -0.2148
     10 C          65.5166   92.4972   12.0541 C.ar    1  UNL1        0.0890
     11 C          65.7600   92.6966   13.5207 C.ar    1  UNL1        0.0800
     12 C          64.9942   91.8873   14.5250 C.ar    1  UNL1        0.2645
     13 O          65.2376   92.0867   15.9915 O.2     1  UNL1       -0.2668
     14 N          63.9849   90.8785   14.0626 N.ar    1  UNL1       -0.2667
     15 C          63.2191   90.0692   15.0668 C.3     1  UNL1        0.1363
     16 C          66.2824   93.3066   11.0498 C.ar    1  UNL1        0.0210
     17 C          66.0778   94.7904   10.9693 C.ar    1  UNL1        0.0222
     18 C          66.8436   95.5997    9.9651 C.ar    1  UNL1        0.0989
     19 N          67.8140   94.9252    9.0413 N.ar    1  UNL1       -0.2423
     20 C          68.0186   93.4414    9.1218 C.ar    1  UNL1        0.0989
     21 C          67.2528   92.6321   10.1260 C.ar    1  UNL1        0.0222
     22 C          62.7643   84.8674   12.1906 C.ar    1  UNL1        0.1382
     23 C          63.1923   83.4614   11.8910 C.ar    1  UNL1        0.0662
     24 C          63.4349   83.0373   10.4728 C.ar    1  UNL1        0.1431
     25 F          63.8629   81.6311   10.1733 F       1  UNL1       -0.2041
     26 C          63.2495   84.0192    9.3542 C.ar    1  UNL1        0.0296
     27 C          62.8215   85.4253    9.6538 C.ar    1  UNL1        0.0024
     28 C          62.5789   85.8494   11.0720 C.ar    1  UNL1        0.0278
     29 C          63.4867   84.8936   14.6861 C.3     1  UNL1        0.2525
     30 O          62.5218   85.2916   13.6088 O.3     1  UNL1       -0.4716
@<TRIPOS>BOND
     1    29    30    1
     2    30    22    1
     3    22    23   ar
     4    23    24   ar
     5    24    25    1
     6    24    26   ar
     7    26    27   ar
     8    27    28   ar
     9    28     1    1
    10     1     2    1
    11     2     3    1
    12     3     8    1
    13     8     9   ar
    14     9    10   ar
    15    10    16    1
    16    16    17   ar
    17    17    18   ar
    18    18    19   ar
    19    19    20   ar
    20    20    21   ar
    21    10    11   ar
    22    11    12   ar
    23    12    13    2
    24    12    14   ar
    25    14    15    1
    26     3     4    1
    27     4     5    1
    28     5     6    1
    29    28    22   ar
    30     6     1    1
    31    14     8   ar
    32    21    16   ar
    33     6     7    1
@<TRIPOS>MOLECULE
*****
 30 33 0 0 0
SMALL
GASTEIGER

@<TRIPOS>ATOM
      1 C          64.6580   91.7791   12.7930 C.3     1  UNL1        0.0999
      2 C          63.9900   90.6499   12.0659 C.3     1  UNL1        0.1138
      3 N          63.2927   89.5692   12.8377 N.pl3   1  UNL1       -0.2763
      4 C          63.2633   89.6177   14.3367 C.3     1  UNL1        0.1107
      5 C          63.9314   90.7469   15.0638 C.3     1  UNL1        0.0906
      6 N          64.6287   91.8276   14.2919 N.3     1  UNL1       -0.2922
      7 H          65.5994   91.8339   14.6053 H       1  UNL1        0.1236
      8 C          62.6246   88.4400   12.1106 C.ar    1  UNL1        0.2035
      9 N          63.0859   87.0297   12.3299 N.ar    1  UNL1       -0.2148
     10 C          62.4178   85.9005   11.6028 C.ar    1  UNL1        0.0890
     11 C          61.2886   86.1816   10.6565 C.ar    1  UNL1        0.0800
     12 C          60.8273   87.5920   10.4371 C.ar    1  UNL1        0.2645
     13 O          59.6980   87.8732    9.4908 O.2     1  UNL1       -0.2668
     14 N          61.4953   88.7212   11.1642 N.ar    1  UNL1       -0.2667
     15 C          61.0341   90.1316   10.9449 C.3     1  UNL1        0.1363
     16 C          62.8791   84.4901   11.8222 C.ar    1  UNL1        0.0210
     17 C          62.7526   83.8619   13.1784 C.ar    1  UNL1        0.0222
     18 C          63.2138   82.4516   13.3977 C.ar    1  UNL1        0.0989
     19 N          63.8017   81.6694   12.2607 N.ar    1  UNL1       -0.2423
     20 C          63.9283   82.2976   10.9045 C.ar    1  UNL1        0.0989
     21 C          63.4670   83.7079   10.6852 C.ar    1  UNL1        0.0222
     22 C          66.0929   93.9446   12.7486 C.ar    1  UNL1        0.1382
     23 C          66.7903   95.0252   11.9767 C.ar    1  UNL1        0.0662
     24 C          66.7501   95.0212   10.4773 C.ar    1  UNL1        0.1431
     25 F          67.4474   96.1019    9.7054 F       1  UNL1       -0.2041
     26 C          66.0126   93.9364    9.7497 C.ar    1  UNL1        0.0296
     27 C          65.3152   92.8558   10.5216 C.ar    1  UNL1        0.0024
     28 C          65.3554   92.8599   12.0211 C.ar    1  UNL1        0.0278
     29 C          67.3950   93.5707   14.9656 C.3     1  UNL1        0.2525
     30 O          66.1331   93.9487   14.2481 O.3     1  UNL1       -0.4716
@<TRIPOS>BOND
     1    29    30    1
     2    30    22    1
     3    22    23   ar
     4    23    24   ar
     5    24    25    1
     6    24    26   ar
     7    26    27   ar
     8    27    28   ar
     9    28     1    1
    10     1     2    1
    11     2     3    1
    12     3     8    1
    13     8     9   ar
    14     9    10   ar
    15    10    16    1
    16    16    17   ar
    17    17    18   ar
    18    18    19   ar
    19    19    20   ar
    20    20    21   ar
    21    10    11   ar
    22    11    12   ar
    23    12    13    2
    24    12    14   ar
    25    14    15    1
    26     3     4    1
    27     4     5    1
    28     5     6    1
    29    28    22   ar
    30     6     1    1
    31    14     8   ar
    32    21    16   ar
    33     6     7    1
@<TRIPOS>MOLECULE
*****
 30 33 0 0 0
SMALL
GASTEIGER

@<TRIPOS>ATOM
      1 C          64.7578   91.5382   13.3089 C.3     1  UNL1        0.0999
      2 C          64.3716   90.2122   12.7234 C.3     1  UNL1        0.1138
      3 N          63.7902   89.1449   13.6024 N.pl3   1  UNL1       -0.2763
      4 C          63.5949   89.4035   15.0670 C.3     1  UNL1        0.1107
      5 C          63.9810   90.7294   15.6526 C.3     1  UNL1        0.0906
      6 N          64.5625   91.7967   14.7735 N.3     1  UNL1       -0.2922
      7 H          65.4793   92.0267   15.1567 H       1  UNL1        0.1236
      8 C          63.4041   87.8190   13.0169 C.ar    1  UNL1        0.2035
      9 N          62.6058   87.7633   11.7482 N.ar    1  UNL1       -0.2148
     10 C          62.2197   86.4373   11.1627 C.ar    1  UNL1        0.0890
     11 C          62.6318   85.1672   11.8458 C.ar    1  UNL1        0.0800
     12 C          63.4301   85.2229   13.1146 C.ar    1  UNL1        0.2645
     13 O          63.8423   83.9527   13.7977 O.2     1  UNL1       -0.2668
     14 N          63.8163   86.5488   13.7001 N.ar    1  UNL1       -0.2667
     15 C          64.6145   86.6045   14.9688 C.3     1  UNL1        0.1363
     16 C          61.4213   86.3816    9.8939 C.ar    1  UNL1        0.0210
     17 C          61.9361   85.6067    8.7173 C.ar    1  UNL1        0.0222
     18 C          61.1378   85.5510    7.4486 C.ar    1  UNL1        0.0989
     19 N          59.8247   86.2703    7.3566 N.ar    1  UNL1       -0.2423
     20 C          59.3100   87.0453    8.5332 C.ar    1  UNL1        0.0989
     21 C          60.1083   87.1009    9.8018 C.ar    1  UNL1        0.0222
     22 C          66.0620   93.7692   13.0409 C.ar    1  UNL1        0.1382
     23 C          66.6434   94.8364   12.1619 C.ar    1  UNL1        0.0662
     24 C          66.5020   94.7400   10.6716 C.ar    1  UNL1        0.1431
     25 F          67.0835   95.8074    9.7925 F       1  UNL1       -0.2041
     26 C          65.7793   93.5764   10.0605 C.ar    1  UNL1        0.0296
     27 C          65.1979   92.5091   10.9396 C.ar    1  UNL1        0.0024
     28 C          65.3392   92.6055   12.4298 C.ar    1  UNL1        0.0278
     29 C          67.5043   93.5070   15.1859 C.3     1  UNL1        0.2525
     30 O          66.2033   93.8655   14.5312 O.3     1  UNL1       -0.4716
@<TRIPOS>BOND
     1    29    30    1
     2    30    22    1
     3    22    23   ar
     4    23    24   ar
     5    24    25    1
     6    24    26   ar
     7    26    27   ar
     8    27    28   ar
     9    28     1    1
    10     1     2    1
    11     2     3    1
    12     3     8    1
    13     8     9   ar
    14     9    10   ar
    15    10    16    1
    16    16    17   ar
    17    17    18   ar
    18    18    19   ar
    19    19    20   ar
    20    20    21   ar
    21    10    11   ar
    22    11    12   ar
    23    12    13    2
    24    12    14   ar
    25    14    15    1
    26     3     4    1
    27     4     5    1
    28     5     6    1
    29    28    22   ar
    30     6     1    1
    31    14     8   ar
    32    21    16   ar
    33     6     7    1
@<TRIPOS>MOLECULE
*****
 30 33 0 0 0
SMALL
GASTEIGER

@<TRIPOS>ATOM
      1 C          62.6649   87.1307   11.9618 C.3     1  UNL1        0.0999
      2 C          63.1652   88.5077   12.2836 C.3     1  UNL1        0.1138
      3 N          63.9995   88.7351   13.5093 N.pl3   1  UNL1       -0.2763
      4 C          64.3335   87.5855   14.4131 C.3     1  UNL1        0.1107
      5 C          63.8332   86.2085   14.0913 C.3     1  UNL1        0.0906
      6 N          62.9989   85.9811   12.8656 N.3     1  UNL1       -0.2922
      7 H          62.1124   85.5878   13.1816 H       1  UNL1        0.1236
      8 C          64.4998   90.1121   13.8311 C.ar    1  UNL1        0.2035
      9 N          65.1427   90.9453   12.7623 N.ar    1  UNL1       -0.2148
     10 C          65.6430   92.3223   13.0842 C.ar    1  UNL1        0.0890
     11 C          65.5003   92.8662   14.4748 C.ar    1  UNL1        0.0800
     12 C          64.8573   92.0330   15.5437 C.ar    1  UNL1        0.2645
     13 O          64.7146   92.5768   16.9343 O.2     1  UNL1       -0.2668
     14 N          64.3570   90.6560   15.2218 N.ar    1  UNL1       -0.2667
     15 C          63.7140   89.8228   16.2906 C.3     1  UNL1        0.1363
     16 C          66.2861   93.1555   12.0153 C.ar    1  UNL1        0.0210
     17 C          67.1033   92.4989   10.9425 C.ar    1  UNL1        0.0222
     18 C          67.7462   93.3321    9.8738 C.ar    1  UNL1        0.0989
     19 N          67.5720   94.8219    9.8778 N.ar    1  UNL1       -0.2423
     20 C          66.7548   95.4786   10.9505 C.ar    1  UNL1        0.0989
     21 C          66.1118   94.6454   12.0193 C.ar    1  UNL1        0.0222
     22 C          60.4602   87.5056   10.6393 C.ar    1  UNL1        0.1382
     23 C          59.6259   87.2782    9.4137 C.ar    1  UNL1        0.0662
     24 C          60.1620   86.4485    8.2848 C.ar    1  UNL1        0.1431
     25 F          59.3277   86.2212    7.0591 F       1  UNL1       -0.2041
     26 C          61.5323   85.8463    8.3816 C.ar    1  UNL1        0.0296
     27 C          62.3666   86.0737    9.6073 C.ar    1  UNL1        0.0024
     28 C          61.8305   86.9033   10.7361 C.ar    1  UNL1        0.0278
     29 C          59.7718   89.8183   11.6025 C.3     1  UNL1        0.2525
     30 O          59.9241   88.3353   11.7682 O.3     1  UNL1       -0.4716
@<TRIPOS>BOND
     1    29    30    1
     2    30    22    1
     3    22    23   ar
     4    23    24   ar
     5    24    25    1
     6    24    26   ar
     7    26    27   ar
     8    27    28   ar
     9    28     1    1
    10     1     2    1
    11     2     3    1
    12     3     8    1
    13     8     9   ar
    14     9    10   ar
    15    10    16    1
    16    16    17   ar
    17    17    18   ar
    18    18    19   ar
    19    19    20   ar
    20    20    21   ar
    21    10    11   ar
    22    11    12   ar
    23    12    13    2
    24    12    14   ar
    25    14    15    1
    26     3     4    1
    27     4     5    1
    28     5     6    1
    29    28    22   ar
    30     6     1    1
    31    14     8   ar
    32    21    16   ar
    33     6     7    1
@<TRIPOS>MOLECULE
*****
 30 33 0 0 0
SMALL
GASTEIGER

@<TRIPOS>ATOM
      1 C          65.4540   91.0520   13.9958 C.3     1  UNL1        0.0999
      2 C          65.0901   89.7692   14.6828 C.3     1  UNL1        0.1138
      3 N          64.0155   88.8917   14.1126 N.pl3   1  UNL1       -0.2763
      4 C          63.3047   89.2970   12.8554 C.3     1  UNL1        0.1107
      5 C          63.6686   90.5798   12.1684 C.3     1  UNL1        0.0906
      6 N          64.7433   91.4573   12.7386 N.3     1  UNL1       -0.2922
      7 H          64.3159   92.3652   12.9216 H       1  UNL1        0.1236
      8 C          63.6516   87.6089   14.7996 C.ar    1  UNL1        0.2035
      9 N          63.7069   86.3129   14.0465 N.ar    1  UNL1       -0.2148
     10 C          63.3430   85.0301   14.7335 C.ar    1  UNL1        0.0890
     11 C          62.9237   85.0433   16.1736 C.ar    1  UNL1        0.0800
     12 C          62.8684   86.3394   16.9268 C.ar    1  UNL1        0.2645
     13 O          62.4491   86.3526   18.3669 O.2     1  UNL1       -0.2668
     14 N          63.2323   87.6222   16.2398 N.ar    1  UNL1       -0.2667
     15 C          63.1770   88.9182   16.9930 C.3     1  UNL1        0.1363
     16 C          63.3983   83.7340   13.9803 C.ar    1  UNL1        0.0210
     17 C          64.2907   83.6004   12.7821 C.ar    1  UNL1        0.0222
     18 C          64.3460   82.3044   12.0290 C.ar    1  UNL1        0.0989
     19 N          63.5089   81.1420   12.4740 N.ar    1  UNL1       -0.2423
     20 C          62.6165   81.2756   13.6722 C.ar    1  UNL1        0.0989
     21 C          62.5612   82.5716   14.4253 C.ar    1  UNL1        0.0222
     22 C          66.6454   93.3574   14.1219 C.ar    1  UNL1        0.1382
     23 C          67.7200   94.2348   14.6921 C.ar    1  UNL1        0.0662
     24 C          68.6781   93.6843   15.7065 C.ar    1  UNL1        0.1431
     25 F          69.7528   94.5618   16.2768 F       1  UNL1       -0.2041
     26 C          68.5615   92.2563   16.1507 C.ar    1  UNL1        0.0296
     27 C          67.4868   91.3789   15.5805 C.ar    1  UNL1        0.0024
     28 C          66.5288   91.9295   14.5660 C.ar    1  UNL1        0.0278
     29 C          66.2077   94.5597   11.8607 C.3     1  UNL1        0.2525
     30 O          65.6873   93.9080   13.1075 O.3     1  UNL1       -0.4716
@<TRIPOS>BOND
     1    29    30    1
     2    30    22    1
     3    22    23   ar
     4    23    24   ar
     5    24    25    1
     6    24    26   ar
     7    26    27   ar
     8    27    28   ar
     9    28     1    1
    10     1     2    1
    11     2     3    1
    12     3     8    1
    13     8     9   ar
    14     9    10   ar
    15    10    16    1
    16    16    17   ar
    17    17    18   ar
    18    18    19   ar
    19    19    20   ar
    20    20    21   ar
    21    10    11   ar
    22    11    12   ar
    23    12    13    2
    24    12    14   ar
    25    14    15    1
    26     3     4    1
    27     4     5    1
    28     5     6    1
    29    28    22   ar
    30     6     1    1
    31    14     8   ar
    32    21    16   ar
    33     6     7    1
@<TRIPOS>MOLECULE
*****
 30 33 0 0 0
SMALL
GASTEIGER

@<TRIPOS>ATOM
      1 C          63.5790   84.1158   13.1835 C.3     1  UNL1        0.0999
      2 C          63.5115   85.5127   12.6411 C.3     1  UNL1        0.1138
      3 N          63.6415   86.6844   13.5684 N.pl3   1  UNL1       -0.2763
      4 C          63.8390   86.4594   15.0383 C.3     1  UNL1        0.1107
      5 C          63.9065   85.0625   15.5807 C.3     1  UNL1        0.0906
      6 N          63.7765   83.8907   14.6533 N.3     1  UNL1       -0.2922
      7 H          62.9777   83.3457   14.9776 H       1  UNL1        0.1236
      8 C          63.5740   88.0813   13.0260 C.ar    1  UNL1        0.2035
      9 N          64.4261   89.1606   13.6252 N.ar    1  UNL1       -0.2148
     10 C          64.3586   90.5574   13.0828 C.ar    1  UNL1        0.0890
     11 C          63.4390   90.8750   11.9412 C.ar    1  UNL1        0.0800
     12 C          62.5868   89.7958   11.3419 C.ar    1  UNL1        0.2645
     13 O          61.6672   90.1134   10.2002 O.2     1  UNL1       -0.2668
     14 N          62.6543   88.3989   11.8843 N.ar    1  UNL1       -0.2667
     15 C          61.8022   87.3197   11.2851 C.3     1  UNL1        0.1363
     16 C          65.2107   91.6367   13.6821 C.ar    1  UNL1        0.0210
     17 C          65.7244   92.7519   12.8205 C.ar    1  UNL1        0.0222
     18 C          66.5765   93.8311   13.4198 C.ar    1  UNL1        0.0989
     19 N          66.9150   93.7951   14.8807 N.ar    1  UNL1       -0.2423
     20 C          66.4013   92.6798   15.7422 C.ar    1  UNL1        0.0989
     21 C          65.5492   91.6006   15.1429 C.ar    1  UNL1        0.0222
     22 C          62.6573   81.7406   12.6744 C.ar    1  UNL1        0.1382
     23 C          62.5274   80.5689   11.7470 C.ar    1  UNL1        0.0662
     24 C          63.1890   80.6006   10.4012 C.ar    1  UNL1        0.1431
     25 F          63.0590   79.4288    9.4738 F       1  UNL1       -0.2041
     26 C          63.9806   81.8040    9.9828 C.ar    1  UNL1        0.0296
     27 C          64.1106   82.9757   10.9102 C.ar    1  UNL1        0.0024
     28 C          63.4490   82.9440   12.2561 C.ar    1  UNL1        0.0278
     29 C          60.8116   80.8180   14.2531 C.3     1  UNL1        0.2525
     30 O          61.9957   81.7089   14.0203 O.3     1  UNL1       -0.4716
@<TRIPOS>BOND
     1    29    30    1
     2    30    22    1
     3    22    23   ar
     4    23    24   ar
     5    24    25    1
     6    24    26   ar
     7    26    27   ar
     8    27    28   ar
     9    28     1    1
    10     1     2    1
    11     2     3    1
    12     3     8    1
    13     8     9   ar
    14     9    10   ar
    15    10    16    1
    16    16    17   ar
    17    17    18   ar
    18    18    19   ar
    19    19    20   ar
    20    20    21   ar
    21    10    11   ar
    22    11    12   ar
    23    12    13    2
    24    12    14   ar
    25    14    15    1
    26     3     4    1
    27     4     5    1
    28     5     6    1
    29    28    22   ar
    30     6     1    1
    31    14     8   ar
    32    21    16   ar
    33     6     7    1
@<TRIPOS>MOLECULE
*****
 30 33 0 0 0
SMALL
GASTEIGER

@<TRIPOS>ATOM
      1 C          65.4610   92.7503   12.0795 C.3     1  UNL1        0.0999
      2 C          64.5933   91.6350   11.5764 C.3     1  UNL1        0.1138
      3 N          64.0572   90.6118   12.5333 N.pl3   1  UNL1       -0.2763
      4 C          64.3888   90.7039   13.9933 C.3     1  UNL1        0.1107
      5 C          65.2565   91.8192   14.4964 C.3     1  UNL1        0.0906
      6 N          65.7927   92.8424   13.5395 N.3     1  UNL1       -0.2922
      7 H          66.8095   92.8101   13.6131 H       1  UNL1        0.1236
      8 C          63.1895   89.4965   12.0301 C.ar    1  UNL1        0.2035
      9 N          63.4791   88.0809   12.4327 N.ar    1  UNL1       -0.2148
     10 C          62.6113   86.9656   11.9296 C.ar    1  UNL1        0.0890
     11 C          61.4540   87.2659   11.0239 C.ar    1  UNL1        0.0800
     12 C          61.1643   88.6816   10.6213 C.ar    1  UNL1        0.2645
     13 O          60.0070   88.9819    9.7156 O.2     1  UNL1       -0.2668
     14 N          62.0320   89.7969   11.1244 N.ar    1  UNL1       -0.2667
     15 C          61.7424   91.2125   10.7218 C.3     1  UNL1        0.1363
     16 C          62.9010   85.5499   12.3322 C.ar    1  UNL1        0.0210
     17 C          62.6269   84.4272   11.3760 C.ar    1  UNL1        0.0222
     18 C          62.9166   83.0116   11.7787 C.ar    1  UNL1        0.0989
     19 N          63.4804   82.7187   13.1375 N.ar    1  UNL1       -0.2423
     20 C          63.7544   83.8414   14.0937 C.ar    1  UNL1        0.0989
     21 C          63.4648   85.2570   13.6910 C.ar    1  UNL1        0.0222
     22 C          67.1437   93.4276   10.2194 C.ar    1  UNL1        0.1382
     23 C          67.6797   94.4508    9.2625 C.ar    1  UNL1        0.0662
     24 C          67.0693   95.8200    9.2089 C.ar    1  UNL1        0.1431
     25 F          67.6055   96.8432    8.2520 F       1  UNL1       -0.2041
     26 C          65.9228   96.1659   10.1121 C.ar    1  UNL1        0.0296
     27 C          65.3868   95.1427   11.0690 C.ar    1  UNL1        0.0024
     28 C          65.9972   93.7735   11.1226 C.ar    1  UNL1        0.0278
     29 C          68.4411   91.4957    9.0642 C.3     1  UNL1        0.2525
     30 O          67.7541   92.0585   10.2730 O.3     1  UNL1       -0.4716
@<TRIPOS>BOND
     1    29    30    1
     2    30    22    1
     3    22    23   ar
     4    23    24   ar
     5    24    25    1
     6    24    26   ar
     7    26    27   ar
     8    27    28   ar
     9    28     1    1
    10     1     2    1
    11     2     3    1
    12     3     8    1
    13     8     9   ar
    14     9    10   ar
    15    10    16    1
    16    16    17   ar
    17    17    18   ar
    18    18    19   ar
    19    19    20   ar
    20    20    21   ar
    21    10    11   ar
    22    11    12   ar
    23    12    13    2
    24    12    14   ar
    25    14    15    1
    26     3     4    1
    27     4     5    1
    28     5     6    1
    29    28    22   ar
    30     6     1    1
    31    14     8   ar
    32    21    16   ar
    33     6     7    1
@<TRIPOS>MOLECULE
*****
 30 33 0 0 0
SMALL
GASTEIGER

@<TRIPOS>ATOM
      1 C          62.4629   87.5179   11.7016 C.3     1  UNL1        0.0999
      2 C          63.0515   88.8544   12.0441 C.3     1  UNL1        0.1138
      3 N          63.9411   88.9971   13.2434 N.pl3   1  UNL1       -0.2763
      4 C          64.2420   87.8032   14.1002 C.3     1  UNL1        0.1107
      5 C          63.6534   86.4667   13.7577 C.3     1  UNL1        0.0906
      6 N          62.7638   86.3241   12.5584 N.3     1  UNL1       -0.2922
      7 H          61.8685   85.9709   12.8961 H       1  UNL1        0.1236
      8 C          64.5297   90.3336   13.5859 C.ar    1  UNL1        0.2035
      9 N          65.1715   91.1667   12.5164 N.ar    1  UNL1       -0.2148
     10 C          65.7601   92.5032   12.8589 C.ar    1  UNL1        0.0890
     11 C          65.7069   93.0065   14.2709 C.ar    1  UNL1        0.0800
     12 C          65.0651   92.1734   15.3405 C.ar    1  UNL1        0.2645
     13 O          65.0119   92.6767   16.7525 O.2     1  UNL1       -0.2668
     14 N          64.4765   90.8369   14.9980 N.ar    1  UNL1       -0.2667
     15 C          63.8346   90.0037   16.0675 C.3     1  UNL1        0.1363
     16 C          66.4020   93.3364   11.7893 C.ar    1  UNL1        0.0210
     17 C          66.1883   94.8209   11.7656 C.ar    1  UNL1        0.0222
     18 C          66.8301   95.6539   10.6960 C.ar    1  UNL1        0.0989
     19 N          67.6857   95.0026    9.6502 N.ar    1  UNL1       -0.2423
     20 C          67.8994   93.5181    9.6740 C.ar    1  UNL1        0.0989
     21 C          67.2576   92.6850   10.7435 C.ar    1  UNL1        0.0222
     22 C          61.5395   86.0821    9.7430 C.ar    1  UNL1        0.1382
     23 C          60.6499   85.9396    8.5438 C.ar    1  UNL1        0.0662
     24 C          59.7942   87.0903    8.1037 C.ar    1  UNL1        0.1431
     25 F          58.9046   86.9477    6.9043 F       1  UNL1       -0.2041
     26 C          59.8280   88.3835    8.8629 C.ar    1  UNL1        0.0296
     27 C          60.7176   88.5260   10.0622 C.ar    1  UNL1        0.0024
     28 C          61.5733   87.3754   10.5022 C.ar    1  UNL1        0.0278
     29 C          63.4257   84.3642    9.2524 C.3     1  UNL1        0.2525
     30 O          62.3952   84.9315   10.1831 O.3     1  UNL1       -0.4716
@<TRIPOS>BOND
     1    29    30    1
     2    30    22    1
     3    22    23   ar
     4    23    24   ar
     5    24    25    1
     6    24    26   ar
     7    26    27   ar
     8    27    28   ar
     9    28     1    1
    10     1     2    1
    11     2     3    1
    12     3     8    1
    13     8     9   ar
    14     9    10   ar
    15    10    16    1
    16    16    17   ar
    17    17    18   ar
    18    18    19   ar
    19    19    20   ar
    20    20    21   ar
    21    10    11   ar
    22    11    12   ar
    23    12    13    2
    24    12    14   ar
    25    14    15    1
    26     3     4    1
    27     4     5    1
    28     5     6    1
    29    28    22   ar
    30     6     1    1
    31    14     8   ar
    32    21    16   ar
    33     6     7    1
@<TRIPOS>MOLECULE
*****
 30 33 0 0 0
SMALL
GASTEIGER

@<TRIPOS>ATOM
      1 C          63.5392   83.9561   13.6923 C.3     1  UNL1        0.0999
      2 C          63.4090   85.2623   12.9665 C.3     1  UNL1        0.1138
      3 N          63.6556   86.5515   13.6925 N.pl3   1  UNL1       -0.2763
      4 C          64.0326   86.5345   15.1443 C.3     1  UNL1        0.1107
      5 C          64.1628   85.2283   15.8701 C.3     1  UNL1        0.0906
      6 N          63.9161   83.9390   15.1440 N.3     1  UNL1       -0.2922
      7 H          63.1620   83.4623   15.6384 H       1  UNL1        0.1236
      8 C          63.5254   87.8578   12.9667 C.ar    1  UNL1        0.2035
      9 N          64.2963   89.0562   13.4351 N.ar    1  UNL1       -0.2148
     10 C          64.1661   90.3624   12.7094 C.ar    1  UNL1        0.0890
     11 C          63.2649   90.4703   11.5152 C.ar    1  UNL1        0.0800
     12 C          62.4939   89.2719   11.0467 C.ar    1  UNL1        0.2645
     13 O          61.5927   89.3797    9.8525 O.2     1  UNL1       -0.2668
     14 N          62.6241   87.9656   11.7725 N.ar    1  UNL1       -0.2667
     15 C          61.8531   86.7672   11.3041 C.3     1  UNL1        0.1363
     16 C          64.9371   91.5608   13.1779 C.ar    1  UNL1        0.0210
     17 C          65.3191   91.6890   14.6227 C.ar    1  UNL1        0.0222
     18 C          66.0901   92.8874   15.0911 C.ar    1  UNL1        0.0989
     19 N          66.4791   93.9576   14.1147 N.ar    1  UNL1       -0.2423
     20 C          66.0971   93.8294   12.6698 C.ar    1  UNL1        0.0989
     21 C          65.3261   92.6310   12.2014 C.ar    1  UNL1        0.0222
     22 C          63.5884   82.5637   11.4994 C.ar    1  UNL1        0.1382
     23 C          63.3417   81.2745   10.7734 C.ar    1  UNL1        0.0662
     24 C          62.7992   80.0885   11.5143 C.ar    1  UNL1        0.1431
     25 F          62.5525   78.7992   10.7882 F       1  UNL1       -0.2041
     26 C          62.5033   80.1916   12.9812 C.ar    1  UNL1        0.0296
     27 C          62.7500   81.4808   13.7071 C.ar    1  UNL1        0.0024
     28 C          63.2925   82.6668   12.9662 C.ar    1  UNL1        0.0278
     29 C          63.5980   84.0928    9.3990 C.3     1  UNL1        0.2525
     30 O          64.1310   83.7497   10.7585 O.3     1  UNL1       -0.4716
@<TRIPOS>BOND
     1    29    30    1
     2    30    22    1
     3    22    23   ar
     4    23    24   ar
     5    24    25    1
     6    24    26   ar
     7    26    27   ar
     8    27    28   ar
     9    28     1    1
    10     1     2    1
    11     2     3    1
    12     3     8    1
    13     8     9   ar
    14     9    10   ar
    15    10    16    1
    16    16    17   ar
    17    17    18   ar
    18    18    19   ar
    19    19    20   ar
    20    20    21   ar
    21    10    11   ar
    22    11    12   ar
    23    12    13    2
    24    12    14   ar
    25    14    15    1
    26     3     4    1
    27     4     5    1
    28     5     6    1
    29    28    22   ar
    30     6     1    1
    31    14     8   ar
    32    21    16   ar
    33     6     7    1
