@<TRIPOS>MOLECULE
*****
 38 42 0 0 0
SMALL
GASTEIGER

@<TRIPOS>ATOM
      1 N          63.9131   89.3037   15.4257 N.ar    1  UNL1       -0.2715
      2 C          63.4117   89.8893   16.7124 C.ar    1  UNL1        0.2649
      3 O          63.4800   91.3705   16.9392 O.2     1  UNL1       -0.2666
      4 C          62.8420   88.9937   17.7723 C.ar    1  UNL1        0.0611
      5 C          62.7738   87.5126   17.5455 C.ar    1  UNL1        0.0064
      6 C          63.2752   86.9269   16.2588 C.ar    1  UNL1        0.0177
      7 C          63.2069   85.4457   16.0320 C.ar    1  UNL1        0.0216
      8 C          63.7083   84.8602   14.7453 C.ar    1  UNL1        0.1253
      9 C          64.2780   85.7557   13.6854 C.ar    1  UNL1        0.0217
     10 C          64.3463   87.2369   13.9121 C.ar    1  UNL1        0.0190
     11 C          63.8449   87.8225   15.1988 C.ar    1  UNL1        0.0670
     12 C          63.6854   90.5024   13.1319 C.ar    1  UNL1        0.1549
     13 C          64.2551   91.3979   12.0720 C.ar    1  UNL1        0.0406
     14 C          65.6221   91.9904   12.2459 C.ar    1  UNL1        0.0306
     15 C          66.4195   91.6873   13.4798 C.ar    1  UNL1        0.1417
     16 F          67.7865   92.2798   13.6537 F       1  UNL1       -0.2041
     17 C          65.8498   90.7917   14.5397 C.ar    1  UNL1        0.0503
     18 C          64.4828   90.1993   14.3657 C.ar    1  UNL1        0.1029
     19 C          66.1918   92.8860   11.1860 C.ar    1  UNL1        0.0021
     20 C          67.2897   92.3876   10.2936 C.ar    1  UNL1        0.0024
     21 C          67.8594   93.2832    9.2337 C.ar    1  UNL1        0.0293
     22 C          67.3311   94.6771    9.0661 C.ar    1  UNL1        0.1361
     23 F          67.9007   95.5727    8.0062 F       1  UNL1       -0.2045
     24 C          66.2332   95.1754    9.9585 C.ar    1  UNL1        0.0056
     25 C          65.7049   96.5693    9.7909 C.3     1  UNL1        0.0334
     26 C          65.6635   94.2798   11.0184 C.ar    1  UNL1       -0.0020
     27 C          61.7956   89.6211   11.5820 C.3     1  UNL1        0.2525
     28 O          62.3184   89.9099   12.9580 O.3     1  UNL1       -0.4700
     29 S          63.6401   83.3789   14.5185 S.O2    1  UNL1        0.0748
     30 O          62.1465   83.4280   14.6474 O.2     1  UNL1       -0.1499
     31 O          65.1337   83.3298   14.3896 O.2     1  UNL1       -0.1499
     32 N          63.5718   81.8978   14.2917 N.pl3   1  UNL1       -0.1962
     33 H          63.6804   81.2783   15.0491 H       1  UNL1        0.1754
     34 C          63.3380   81.3604   12.9108 C.ar    1  UNL1        0.1893
     35 C          63.6504   82.0673   11.6252 C.ar    1  UNL1        0.0823
     36 C          63.2563   81.1657   10.4929 C.ar    1  UNL1        0.2152
     37 O          62.7004   79.9016   11.0789 O.2     1  UNL1       -0.3489
     38 N          62.7510   80.0220   12.5732 N.ar    1  UNL1       -0.0605
@<TRIPOS>BOND
     1    27    28    1
     2    28    12    1
     3    12    13   ar
     4    13    14   ar
     5    14    19    1
     6    19    20   ar
     7    20    21   ar
     8    21    22   ar
     9    22    23    1
    10    22    24   ar
    11    24    25    1
    12    24    26   ar
    13    14    15   ar
    14    15    16    1
    15    15    17   ar
    16    17    18   ar
    17    18     1    1
    18     1     2   ar
    19     2     3    2
    20     2     4   ar
    21     4     5   ar
    22     5     6   ar
    23     6     7   ar
    24     7     8   ar
    25     8    29    1
    26    29    30    2
    27    29    31    2
    28    29    32    1
    29    32    34    1
    30    34    35   ar
    31    35    36   ar
    32    36    37   ar
    33    37    38   ar
    34     8     9   ar
    35     9    10   ar
    36    10    11   ar
    37    18    12   ar
    38    11     1   ar
    39    26    19   ar
    40    11     6   ar
    41    38    34   ar
    42    32    33    1
@<TRIPOS>MOLECULE
*****
 38 42 0 0 0
SMALL
GASTEIGER

@<TRIPOS>ATOM
      1 N          63.9983   89.7701   15.2662 N.ar    1  UNL1       -0.2715
      2 C          63.5337   90.3812   16.5548 C.ar    1  UNL1        0.2649
      3 O          63.6139   91.8660   16.7526 O.2     1  UNL1       -0.2666
      4 C          62.9887   89.5077   17.6456 C.ar    1  UNL1        0.0611
      5 C          62.9085   88.0230   17.4478 C.ar    1  UNL1        0.0064
      6 C          63.3731   87.4117   16.1592 C.ar    1  UNL1        0.0177
      7 C          63.2929   85.9270   15.9614 C.ar    1  UNL1        0.0216
      8 C          63.7575   85.3159   14.6728 C.ar    1  UNL1        0.1253
      9 C          64.3025   86.1894   13.5820 C.ar    1  UNL1        0.0217
     10 C          64.3827   87.6742   13.7797 C.ar    1  UNL1        0.0190
     11 C          63.9181   88.2853   15.0683 C.ar    1  UNL1        0.0670
     12 C          65.8285   91.3887   14.3827 C.ar    1  UNL1        0.1549
     13 C          66.3734   92.2622   13.2919 C.ar    1  UNL1        0.0406
     14 C          65.6332   92.3908   11.9936 C.ar    1  UNL1        0.0306
     15 C          64.3479   91.6457   11.7862 C.ar    1  UNL1        0.1417
     16 F          63.6076   91.7742   10.4880 F       1  UNL1       -0.2041
     17 C          63.8029   90.7721   12.8770 C.ar    1  UNL1        0.0503
     18 C          64.5433   90.6436   14.1753 C.ar    1  UNL1        0.1029
     19 C          66.1781   93.2643   10.9028 C.ar    1  UNL1        0.0021
     20 C          65.6661   94.6645   10.7370 C.ar    1  UNL1        0.0024
     21 C          66.2110   95.5381    9.6461 C.ar    1  UNL1        0.0293
     22 C          67.2680   95.0114    8.7211 C.ar    1  UNL1        0.1361
     23 F          67.8129   95.8850    7.6303 F       1  UNL1       -0.2045
     24 C          67.7799   93.6113    8.8870 C.ar    1  UNL1        0.0056
     25 C          68.8369   93.0847    7.9619 C.3     1  UNL1        0.0334
     26 C          67.2350   92.7378    9.9778 C.ar    1  UNL1       -0.0020
     27 C          67.6485   92.2416   16.0290 C.3     1  UNL1        0.2525
     28 O          66.5689   91.2602   15.6810 O.3     1  UNL1       -0.4700
     29 S          63.6773   83.8311   14.4750 S.O2    1  UNL1        0.0748
     30 O          65.0261   83.6734   15.1120 O.2     1  UNL1       -0.1499
     31 O          62.3284   83.9888   13.8380 O.2     1  UNL1       -0.1499
     32 N          63.5970   82.3464   14.2772 N.pl3   1  UNL1       -0.1962
     33 H          63.6278   81.7438   15.0551 H       1  UNL1        0.1754
     34 C          63.4700   81.7798   12.8941 C.ar    1  UNL1        0.1893
     35 C          62.7152   80.5402   12.5152 C.ar    1  UNL1        0.0823
     36 C          62.8541   80.3475   11.0340 C.ar    1  UNL1        0.2152
     37 O          63.6949   81.4681   10.4977 O.2     1  UNL1       -0.3489
     38 N          64.0755   82.3532   11.6473 N.ar    1  UNL1       -0.0605
@<TRIPOS>BOND
     1    27    28    1
     2    28    12    1
     3    12    13   ar
     4    13    14   ar
     5    14    19    1
     6    19    20   ar
     7    20    21   ar
     8    21    22   ar
     9    22    23    1
    10    22    24   ar
    11    24    25    1
    12    24    26   ar
    13    14    15   ar
    14    15    16    1
    15    15    17   ar
    16    17    18   ar
    17    18     1    1
    18     1     2   ar
    19     2     3    2
    20     2     4   ar
    21     4     5   ar
    22     5     6   ar
    23     6     7   ar
    24     7     8   ar
    25     8    29    1
    26    29    30    2
    27    29    31    2
    28    29    32    1
    29    32    34    1
    30    34    35   ar
    31    35    36   ar
    32    36    37   ar
    33    37    38   ar
    34     8     9   ar
    35     9    10   ar
    36    10    11   ar
    37    18    12   ar
    38    11     1   ar
    39    26    19   ar
    40    11     6   ar
    41    38    34   ar
    42    32    33    1
