@<TRIPOS>MOLECULE
*****
 37 42 0 0 0
SMALL
GASTEIGER

@<TRIPOS>ATOM
      1 C          63.9489   89.3283   14.7926 C.ar    1  UNL1        0.2392
      2 N          62.9769   89.7426   13.7280 N.ar    1  UNL1       -0.1958
      3 C          63.3418   90.8299   12.7612 C.ar    1  UNL1        0.1539
      4 C          64.6789   91.5027   12.8590 C.ar    1  UNL1        0.1146
      5 C          65.3130   92.5972   12.0528 C.ar    1  UNL1        0.0236
      6 C          66.6770   92.8593   12.6192 C.ar    1  UNL1        0.0223
      7 C          66.8859   91.9267   13.7754 C.ar    1  UNL1        0.1006
      8 N          65.6509   91.0883   13.9236 N.ar    1  UNL1       -0.2229
      9 N          65.2859   90.0011   14.8904 N.ar    1  UNL1       -0.1294
     10 C          64.0207   87.1963   14.1021 C.3     1  UNL1        0.0293
     11 C          63.5766   86.7693   15.4697 C.3     1  UNL1        0.1293
     12 C          63.1503   86.0534   16.7170 C.3     1  UNL1        0.0289
     13 C          62.8943   87.0827   17.7777 C.3     1  UNL1        0.0237
     14 C          63.1622   88.4347   17.1859 C.3     1  UNL1        0.0941
     15 N          63.5839   88.2410   15.7595 N.pl3   1  UNL1       -0.2722
     16 C          63.6621   85.3869   14.8940 C.2     1  UNL1        0.2422
     17 O          64.9630   84.6410   14.9243 O.2     1  UNL1       -0.2731
     18 N          62.4465   84.7503   14.2879 N.am    1  UNL1       -0.2814
     19 H          61.5926   85.2399   14.2680 H       1  UNL1        0.1549
     20 C          62.5320   83.3679   13.7122 C.ar    1  UNL1        0.0699
     21 C          62.7886   83.1804   12.2462 C.ar    1  UNL1        0.0202
     22 C          62.8741   81.7980   11.6705 C.ar    1  UNL1        0.0510
     23 C          62.7031   80.6029   12.5607 C.ar    1  UNL1        0.2224
     24 F          62.7886   79.2204   11.9850 F       1  UNL1       -0.1832
     25 N          62.4465   80.7903   14.0268 N.ar    1  UNL1       -0.2151
     26 C          62.3610   82.1728   14.6025 C.ar    1  UNL1        0.1159
     27 N          62.3697   91.2442   11.6965 N.pl3   1  UNL1       -0.2825
     28 H          62.1237   92.1922   11.5965 H       1  UNL1        0.1550
     29 C          61.7724   90.2141   10.7844 C.ar    1  UNL1        0.1277
     30 C          62.3977   88.9050   10.4033 C.ar    1  UNL1        0.0502
     31 C          61.4565   88.1942    9.4766 C.ar    1  UNL1        0.0807
     32 N          60.2496   89.0639    9.2848 N.ar    1  UNL1       -0.1760
     33 N          60.4448   90.3124   10.0931 N.ar    1  UNL1       -0.2631
     34 H          59.8126   91.0642   10.1584 H       1  UNL1        0.1903
     35 C          61.6826   86.8495    8.8513 C.3     1  UNL1        0.0421
     36 C          61.1847   85.7009    8.0251 C.3     1  UNL1        0.0064
     37 C          62.5721   85.6693    8.5944 C.3     1  UNL1        0.0064
@<TRIPOS>BOND
     1    11    10    1
     2    11    16    1
     3    16    17    2
     4    16    18   am
     5    18    20    1
     6    20    21   ar
     7    21    22   ar
     8    22    23   ar
     9    23    24    1
    10    23    25   ar
    11    25    26   ar
    12    11    12    1
    13    12    13    1
    14    13    14    1
    15    14    15    1
    16    15     1    1
    17     1     2   ar
    18     2     3   ar
    19     3    27    1
    20    27    29    1
    21    29    30   ar
    22    30    31   ar
    23    31    35    1
    24    35    36    1
    25    36    37    1
    26    31    32   ar
    27    32    33   ar
    28     3     4   ar
    29     4     5   ar
    30     5     6   ar
    31     6     7   ar
    32     7     8   ar
    33     8     9   ar
    34    15    11    1
    35     9     1   ar
    36    26    20   ar
    37    33    29   ar
    38     8     4   ar
    39    37    35    1
    40    18    19    1
    41    27    28    1
    42    33    34    1
@<TRIPOS>MOLECULE
*****
 37 42 0 0 0
SMALL
GASTEIGER

@<TRIPOS>ATOM
      1 C          62.6884   90.3061   10.8764 C.ar    1  UNL1        0.2392
      2 N          62.8142   90.0574   12.3502 N.ar    1  UNL1       -0.1958
      3 C          63.8048   90.8395   13.1609 C.ar    1  UNL1        0.1539
      4 C          64.6695   91.8702   12.4977 C.ar    1  UNL1        0.1146
      5 C          65.7270   92.7888   13.0342 C.ar    1  UNL1        0.0236
      6 C          66.2548   93.6051   11.8919 C.ar    1  UNL1        0.0223
      7 C          65.5235   93.1911   10.6494 C.ar    1  UNL1        0.1006
      8 N          64.5436   92.1189   11.0238 N.ar    1  UNL1       -0.2229
      9 N          63.5531   91.3368   10.2132 N.ar    1  UNL1       -0.1294
     10 C          62.7456   88.0664   10.9638 C.3     1  UNL1        0.0293
     11 C          61.5928   88.0290   10.0048 C.3     1  UNL1        0.1293
     12 C          60.4685   87.6808    9.0749 C.3     1  UNL1        0.0289
     13 C          59.8786   88.9606    8.5611 C.3     1  UNL1        0.0237
     14 C          60.6384   90.0998    9.1734 C.3     1  UNL1        0.0941
     15 N          61.6978   89.5240   10.0656 N.pl3   1  UNL1       -0.2722
     16 C          61.7288   86.5417   10.1444 C.2     1  UNL1        0.2422
     17 O          60.9227   85.6294    9.2683 O.2     1  UNL1       -0.2731
     18 N          62.6710   85.9668   11.1602 N.am    1  UNL1       -0.2814
     19 H          63.2001   86.5657   11.7352 H       1  UNL1        0.1549
     20 C          62.8069   84.4796   11.2998 C.ar    1  UNL1        0.0699
     21 C          63.5838   83.6985   10.2817 C.ar    1  UNL1        0.0202
     22 C          63.7198   82.2113   10.4213 C.ar    1  UNL1        0.0510
     23 C          63.0789   81.5049   11.5791 C.ar    1  UNL1        0.2224
     24 F          63.2149   80.0177   11.7187 F       1  UNL1       -0.1832
     25 N          62.3020   82.2860   12.5972 N.ar    1  UNL1       -0.2151
     26 C          62.1661   83.7732   12.4576 C.ar    1  UNL1        0.1159
     27 N          63.9305   90.5908   14.6349 N.pl3   1  UNL1       -0.2825
     28 H          64.0932   91.3429   15.2489 H       1  UNL1        0.1550
     29 C          63.8085   89.1961   15.1732 C.ar    1  UNL1        0.1277
     30 C          64.3353   87.9510   14.5235 C.ar    1  UNL1        0.0502
     31 C          63.9906   86.7870   15.4046 C.ar    1  UNL1        0.0807
     32 N          63.2507   87.3127   16.5988 N.ar    1  UNL1       -0.1760
     33 N          63.1381   88.8016   16.4558 N.ar    1  UNL1       -0.2631
     34 H          62.7010   89.4127   17.0920 H       1  UNL1        0.1903
     35 C          64.3268   85.3496   15.1382 C.3     1  UNL1        0.0421
     36 C          65.1396   84.3185   14.4130 C.3     1  UNL1        0.0064
     37 C          64.0961   83.8911   15.4022 C.3     1  UNL1        0.0064
@<TRIPOS>BOND
     1    11    10    1
     2    11    16    1
     3    16    17    2
     4    16    18   am
     5    18    20    1
     6    20    21   ar
     7    21    22   ar
     8    22    23   ar
     9    23    24    1
    10    23    25   ar
    11    25    26   ar
    12    11    12    1
    13    12    13    1
    14    13    14    1
    15    14    15    1
    16    15     1    1
    17     1     2   ar
    18     2     3   ar
    19     3    27    1
    20    27    29    1
    21    29    30   ar
    22    30    31   ar
    23    31    35    1
    24    35    36    1
    25    36    37    1
    26    31    32   ar
    27    32    33   ar
    28     3     4   ar
    29     4     5   ar
    30     5     6   ar
    31     6     7   ar
    32     7     8   ar
    33     8     9   ar
    34    15    11    1
    35     9     1   ar
    36    26    20   ar
    37    33    29   ar
    38     8     4   ar
    39    37    35    1
    40    18    19    1
    41    27    28    1
    42    33    34    1
