@<TRIPOS>MOLECULE
*****
 32 34 0 0 0
SMALL
GASTEIGER

@<TRIPOS>ATOM
      1 C          60.8914   89.7608   11.1660 C.2     1  UNL1        0.2271
      2 O          60.3771   88.9758   12.3361 O.2     1  UNL1       -0.2748
      3 N          62.1922   90.5002   11.2723 N.am    1  UNL1       -0.2760
      4 C          62.9787   90.4545   12.5487 C.3     1  UNL1        0.1149
      5 C          64.2795   91.1939   12.6550 C.3     1  UNL1        0.1152
      6 N          64.7937   91.9789   11.4848 N.am    1  UNL1       -0.2726
      7 C          66.0946   92.7183   11.5912 C.2     1  UNL1        0.2491
      8 O          66.6088   93.5034   10.4210 O.2     1  UNL1       -0.2699
      9 C          64.0072   92.0246   10.2084 C.3     1  UNL1        0.1152
     10 C          62.7065   91.2852   10.1021 C.3     1  UNL1        0.1149
     11 C          66.8810   92.6727   12.8676 C.ar    1  UNL1        0.0537
     12 C          68.0494   91.7407   12.9957 C.ar    1  UNL1        0.0068
     13 C          68.8359   91.6951   14.2722 C.ar    1  UNL1        0.0298
     14 C          68.4540   92.5814   15.4205 C.ar    1  UNL1        0.1401
     15 F          69.2405   92.5357   16.6969 F       1  UNL1       -0.2042
     16 C          67.2856   93.5133   15.2924 C.ar    1  UNL1        0.0298
     17 C          66.4992   93.5590   14.0160 C.ar    1  UNL1        0.0068
     18 C          60.1049   89.8065    9.8895 C.3     1  UNL1        0.1010
     19 N          60.0849   88.7221    7.5286 N.3     1  UNL1       -0.3215
     20 C          60.0136   88.5870    9.0208 C.3     1  UNL1        0.0644
     21 H          60.1952   89.7055    7.2812 H       1  UNL1        0.1188
     22 H          59.2262   88.3611    7.1131 H       1  UNL1        0.1188
     23 C          59.8508   87.2325    9.6443 C.3     1  UNL1        0.0447
     24 C          61.0359   86.3234    9.7829 C.ar    1  UNL1        0.0090
     25 C          61.5603   85.9771   11.1450 C.ar    1  UNL1        0.0300
     26 C          62.7453   85.0681   11.2836 C.ar    1  UNL1        0.1672
     27 F          63.2696   84.7219   12.6457 F       1  UNL1       -0.2018
     28 C          63.4060   84.5053   10.0602 C.ar    1  UNL1        0.1696
     29 F          64.5911   83.5963   10.1989 F       1  UNL1       -0.2017
     30 C          62.8817   84.8516    8.6982 C.ar    1  UNL1        0.0612
     31 C          61.6966   85.7606    8.5595 C.ar    1  UNL1        0.1386
     32 F          61.1723   86.1069    7.1975 F       1  UNL1       -0.2044
@<TRIPOS>BOND
     1    20    19    1
     2    20    18    1
     3    18     1    1
     4     1     2    2
     5     1     3   am
     6     3     4    1
     7     4     5    1
     8     5     6    1
     9     6     7   am
    10     7     8    2
    11     7    11    1
    12    11    12   ar
    13    12    13   ar
    14    13    14   ar
    15    14    15    1
    16    14    16   ar
    17    16    17   ar
    18     6     9    1
    19     9    10    1
    20    20    23    1
    21    23    24    1
    22    24    25   ar
    23    25    26   ar
    24    26    27    1
    25    26    28   ar
    26    28    29    1
    27    28    30   ar
    28    30    31   ar
    29    31    32    1
    30    10     3    1
    31    31    24   ar
    32    17    11   ar
    33    19    21    1
    34    19    22    1
@<TRIPOS>MOLECULE
*****
 32 34 0 0 0
SMALL
GASTEIGER

@<TRIPOS>ATOM
      1 C          63.3555   90.3588   12.0552 C.2     1  UNL1        0.2271
      2 O          62.8029   90.3910   10.6611 O.2     1  UNL1       -0.2748
      3 N          63.5253   89.0480   12.7646 N.am    1  UNL1       -0.2760
      4 C          63.1425   87.7695   12.0799 C.3     1  UNL1        0.1149
      5 C          63.3123   86.4589   12.7892 C.3     1  UNL1        0.1152
      6 N          63.8650   86.4266   14.1833 N.am    1  UNL1       -0.2726
      7 C          64.0348   85.1159   14.8927 C.2     1  UNL1        0.2491
      8 O          64.5875   85.0837   16.2868 O.2     1  UNL1       -0.2699
      9 C          64.2478   87.7051   14.8681 C.3     1  UNL1        0.1152
     10 C          64.0780   89.0158   14.1587 C.3     1  UNL1        0.1149
     11 C          63.6520   83.8374   14.2079 C.ar    1  UNL1        0.0537
     12 C          64.4230   83.3683   13.0098 C.ar    1  UNL1        0.0068
     13 C          64.0401   82.0897   12.3251 C.ar    1  UNL1        0.0298
     14 C          62.8863   81.2804   12.8384 C.ar    1  UNL1        0.1401
     15 F          62.5035   80.0019   12.1537 F       1  UNL1       -0.2042
     16 C          62.1153   81.7495   14.0365 C.ar    1  UNL1        0.0298
     17 C          62.4981   83.0280   14.7213 C.ar    1  UNL1        0.0068
     18 C          63.7383   91.6372   12.7400 C.3     1  UNL1        0.1010
     19 N          65.6916   92.5282   14.2033 N.3     1  UNL1       -0.3215
     20 C          65.1853   92.0019   12.8931 C.3     1  UNL1        0.0644
     21 H          64.9226   92.5722   14.8720 H       1  UNL1        0.1188
     22 H          66.0784   93.4622   14.0680 H       1  UNL1        0.1188
     23 C          66.1259   91.8405   11.7359 C.3     1  UNL1        0.0447
     24 C          66.5081   93.0316   10.9082 C.ar    1  UNL1        0.0090
     25 C          65.8236   94.3482   11.1276 C.ar    1  UNL1        0.0300
     26 C          66.2058   95.5393   10.2999 C.ar    1  UNL1        0.1672
     27 F          65.5212   96.8558   10.5193 F       1  UNL1       -0.2018
     28 C          67.2726   95.4140    9.2529 C.ar    1  UNL1        0.1696
     29 F          67.6548   96.6051    8.4253 F       1  UNL1       -0.2017
     30 C          67.9571   94.0975    9.0335 C.ar    1  UNL1        0.0612
     31 C          67.5749   92.9063    9.8612 C.ar    1  UNL1        0.1386
     32 F          68.2595   91.5898    9.6418 F       1  UNL1       -0.2044
@<TRIPOS>BOND
     1    20    19    1
     2    20    18    1
     3    18     1    1
     4     1     2    2
     5     1     3   am
     6     3     4    1
     7     4     5    1
     8     5     6    1
     9     6     7   am
    10     7     8    2
    11     7    11    1
    12    11    12   ar
    13    12    13   ar
    14    13    14   ar
    15    14    15    1
    16    14    16   ar
    17    16    17   ar
    18     6     9    1
    19     9    10    1
    20    20    23    1
    21    23    24    1
    22    24    25   ar
    23    25    26   ar
    24    26    27    1
    25    26    28   ar
    26    28    29    1
    27    28    30   ar
    28    30    31   ar
    29    31    32    1
    30    10     3    1
    31    31    24   ar
    32    17    11   ar
    33    19    21    1
    34    19    22    1
@<TRIPOS>MOLECULE
*****
 32 34 0 0 0
SMALL
GASTEIGER

@<TRIPOS>ATOM
      1 C          62.6995   89.3727   11.4250 C.2     1  UNL1        0.2271
      2 O          61.9003   89.3205   10.1567 O.2     1  UNL1       -0.2748
      3 N          63.0243   88.1057   12.1594 N.am    1  UNL1       -0.2760
      4 C          62.5501   86.7866   11.6254 C.3     1  UNL1        0.1149
      5 C          62.8749   85.5197   12.3598 C.3     1  UNL1        0.1152
      6 N          63.6740   85.5719   13.6282 N.am    1  UNL1       -0.2726
      7 C          63.9989   84.3049   14.3626 C.2     1  UNL1        0.2491
      8 O          64.7980   84.3570   15.6309 O.2     1  UNL1       -0.2699
      9 C          64.1483   86.8909   14.1621 C.3     1  UNL1        0.1152
     10 C          63.8234   88.1578   13.4277 C.3     1  UNL1        0.1149
     11 C          63.5246   82.9858   13.8286 C.ar    1  UNL1        0.0537
     12 C          62.4083   82.2563   14.5154 C.ar    1  UNL1        0.0068
     13 C          61.9341   80.9372   13.9814 C.ar    1  UNL1        0.0298
     14 C          62.5761   80.3477   12.7607 C.ar    1  UNL1        0.1401
     15 F          62.1018   79.0286   12.2267 F       1  UNL1       -0.2042
     16 C          63.6924   81.0772   12.0739 C.ar    1  UNL1        0.0298
     17 C          64.1666   82.3963   12.6078 C.ar    1  UNL1        0.0068
     18 C          63.1737   90.6917   11.9589 C.3     1  UNL1        0.1010
     19 N          63.4267   91.9586    9.7048 N.3     1  UNL1       -0.3215
     20 C          63.9432   91.6265   11.0733 C.3     1  UNL1        0.0644
     21 H          62.5488   91.4649    9.5437 H       1  UNL1        0.1188
     22 H          64.1110   91.6728    9.0045 H       1  UNL1        0.1188
     23 C          65.2292   92.2290   11.5562 C.3     1  UNL1        0.0447
     24 C          65.9768   93.1966   10.6875 C.ar    1  UNL1        0.0090
     25 C          65.3877   94.5425   10.3847 C.ar    1  UNL1        0.0300
     26 C          66.1353   95.5102    9.5160 C.ar    1  UNL1        0.1672
     27 F          65.5463   96.8560    9.2132 F       1  UNL1       -0.2018
     28 C          67.4720   95.1320    8.9501 C.ar    1  UNL1        0.1696
     29 F          68.2196   96.0996    8.0814 F       1  UNL1       -0.2017
     30 C          68.0611   93.7862    9.2528 C.ar    1  UNL1        0.0612
     31 C          67.3135   92.8184   10.1216 C.ar    1  UNL1        0.1386
     32 F          67.9025   91.4726   10.4244 F       1  UNL1       -0.2044
@<TRIPOS>BOND
     1    20    19    1
     2    20    18    1
     3    18     1    1
     4     1     2    2
     5     1     3   am
     6     3     4    1
     7     4     5    1
     8     5     6    1
     9     6     7   am
    10     7     8    2
    11     7    11    1
    12    11    12   ar
    13    12    13   ar
    14    13    14   ar
    15    14    15    1
    16    14    16   ar
    17    16    17   ar
    18     6     9    1
    19     9    10    1
    20    20    23    1
    21    23    24    1
    22    24    25   ar
    23    25    26   ar
    24    26    27    1
    25    26    28   ar
    26    28    29    1
    27    28    30   ar
    28    30    31   ar
    29    31    32    1
    30    10     3    1
    31    31    24   ar
    32    17    11   ar
    33    19    21    1
    34    19    22    1
@<TRIPOS>MOLECULE
*****
 32 34 0 0 0
SMALL
GASTEIGER

@<TRIPOS>ATOM
      1 C          62.8703   89.4107   11.3397 C.2     1  UNL1        0.2271
      2 O          62.0991   89.2988   10.0580 O.2     1  UNL1       -0.2748
      3 N          63.1376   88.1860   12.1635 N.am    1  UNL1       -0.2760
      4 C          62.6338   86.8494   11.7056 C.3     1  UNL1        0.1149
      5 C          62.9011   85.6248   12.5295 C.3     1  UNL1        0.1152
      6 N          63.6723   85.7367   13.8111 N.am    1  UNL1       -0.2726
      7 C          63.9396   84.5119   14.6350 C.2     1  UNL1        0.2491
      8 O          64.7108   84.6238   15.9167 O.2     1  UNL1       -0.2699
      9 C          64.1762   87.0732   14.2690 C.3     1  UNL1        0.1152
     10 C          63.9089   88.2979   13.4452 C.3     1  UNL1        0.1149
     11 C          63.4357   83.1754   14.1771 C.ar    1  UNL1        0.0537
     12 C          64.2206   82.3807   13.1759 C.ar    1  UNL1        0.0068
     13 C          63.7167   81.0441   12.7180 C.ar    1  UNL1        0.0298
     14 C          62.4279   80.5022   13.2614 C.ar    1  UNL1        0.1401
     15 F          61.9240   79.1657   12.8035 F       1  UNL1       -0.2042
     16 C          61.6430   81.2969   14.2626 C.ar    1  UNL1        0.0298
     17 C          62.1468   82.6334   14.7205 C.ar    1  UNL1        0.0068
     18 C          63.3742   90.7473   11.7975 C.3     1  UNL1        0.1010
     19 N          63.1902   91.8825    9.4678 N.3     1  UNL1       -0.3215
     20 C          63.8761   91.7434   10.7945 C.3     1  UNL1        0.0644
     21 H          62.4093   91.2281    9.4185 H       1  UNL1        0.1188
     22 H          63.8526   91.6784    8.7195 H       1  UNL1        0.1188
     23 C          65.0638   92.6004   11.1183 C.3     1  UNL1        0.0447
     24 C          65.8496   92.3506   12.3713 C.ar    1  UNL1        0.0090
     25 C          65.1626   92.3742   13.7046 C.ar    1  UNL1        0.0300
     26 C          65.9483   92.1244   14.9577 C.ar    1  UNL1        0.1672
     27 F          65.2614   92.1480   16.2909 F       1  UNL1       -0.2018
     28 C          67.4211   91.8511   14.8776 C.ar    1  UNL1        0.1696
     29 F          68.2068   91.6014   16.1306 F       1  UNL1       -0.2017
     30 C          68.1080   91.8275   13.5444 C.ar    1  UNL1        0.0612
     31 C          67.3223   92.0773   12.2912 C.ar    1  UNL1        0.1386
     32 F          68.0093   92.0537   10.9580 F       1  UNL1       -0.2044
@<TRIPOS>BOND
     1    20    19    1
     2    20    18    1
     3    18     1    1
     4     1     2    2
     5     1     3   am
     6     3     4    1
     7     4     5    1
     8     5     6    1
     9     6     7   am
    10     7     8    2
    11     7    11    1
    12    11    12   ar
    13    12    13   ar
    14    13    14   ar
    15    14    15    1
    16    14    16   ar
    17    16    17   ar
    18     6     9    1
    19     9    10    1
    20    20    23    1
    21    23    24    1
    22    24    25   ar
    23    25    26   ar
    24    26    27    1
    25    26    28   ar
    26    28    29    1
    27    28    30   ar
    28    30    31   ar
    29    31    32    1
    30    10     3    1
    31    31    24   ar
    32    17    11   ar
    33    19    21    1
    34    19    22    1
@<TRIPOS>MOLECULE
*****
 32 34 0 0 0
SMALL
GASTEIGER

@<TRIPOS>ATOM
      1 C          60.5257   90.0427   11.6813 C.2     1  UNL1        0.2271
      2 O          60.0086   89.4107   12.9396 O.2     1  UNL1       -0.2748
      3 N          61.8887   90.6686   11.6617 N.am    1  UNL1       -0.2760
      4 C          62.7347   90.6626   12.9004 C.3     1  UNL1        0.1149
      5 C          64.0976   91.2886   12.8807 C.3     1  UNL1        0.1152
      6 N          64.6147   91.9206   11.6224 N.am    1  UNL1       -0.2726
      7 C          65.9777   92.5465   11.6029 C.2     1  UNL1        0.2491
      8 O          66.4948   93.1785   10.3446 O.2     1  UNL1       -0.2699
      9 C          63.7687   91.9266   10.3838 C.3     1  UNL1        0.1152
     10 C          62.4058   91.3006   10.4034 C.3     1  UNL1        0.1149
     11 C          66.8237   92.5405   12.8415 C.ar    1  UNL1        0.0537
     12 C          66.4595   93.4174   14.0027 C.ar    1  UNL1        0.0068
     13 C          67.3055   93.4114   15.2414 C.ar    1  UNL1        0.0298
     14 C          68.5156   92.5284   15.3189 C.ar    1  UNL1        0.1401
     15 F          69.3616   92.5224   16.5575 F       1  UNL1       -0.2042
     16 C          68.8798   91.6515   14.1576 C.ar    1  UNL1        0.0298
     17 C          68.0339   91.6576   12.9190 C.ar    1  UNL1        0.0068
     18 C          59.6797   90.0487   10.4427 C.3     1  UNL1        0.1010
     19 N          60.1579   89.5194    7.9444 N.3     1  UNL1       -0.3215
     20 C          59.9389   89.0514    9.3525 C.3     1  UNL1        0.0644
     21 H          60.0967   90.5370    7.9109 H       1  UNL1        0.1188
     22 H          59.4446   89.1158    7.3371 H       1  UNL1        0.1188
     23 C          59.9791   87.5861    9.6707 C.3     1  UNL1        0.0447
     24 C          60.8409   86.6656    8.8583 C.ar    1  UNL1        0.0090
     25 C          60.2496   85.9040    7.7092 C.ar    1  UNL1        0.0300
     26 C          61.1114   84.9835    6.8968 C.ar    1  UNL1        0.1672
     27 F          60.5202   84.2219    5.7477 F       1  UNL1       -0.2018
     28 C          62.5645   84.8247    7.2334 C.ar    1  UNL1        0.1696
     29 F          63.4263   83.9043    6.4210 F       1  UNL1       -0.2017
     30 C          63.1558   85.5863    8.3825 C.ar    1  UNL1        0.0612
     31 C          62.2940   86.5068    9.1949 C.ar    1  UNL1        0.1386
     32 F          62.8852   87.2684   10.3439 F       1  UNL1       -0.2044
@<TRIPOS>BOND
     1    20    19    1
     2    20    18    1
     3    18     1    1
     4     1     2    2
     5     1     3   am
     6     3     4    1
     7     4     5    1
     8     5     6    1
     9     6     7   am
    10     7     8    2
    11     7    11    1
    12    11    12   ar
    13    12    13   ar
    14    13    14   ar
    15    14    15    1
    16    14    16   ar
    17    16    17   ar
    18     6     9    1
    19     9    10    1
    20    20    23    1
    21    23    24    1
    22    24    25   ar
    23    25    26   ar
    24    26    27    1
    25    26    28   ar
    26    28    29    1
    27    28    30   ar
    28    30    31   ar
    29    31    32    1
    30    10     3    1
    31    31    24   ar
    32    17    11   ar
    33    19    21    1
    34    19    22    1
@<TRIPOS>MOLECULE
*****
 32 34 0 0 0
SMALL
GASTEIGER

@<TRIPOS>ATOM
      1 C          62.5690   89.6651   11.6270 C.2     1  UNL1        0.2271
      2 O          61.9080   89.8583   10.2944 O.2     1  UNL1       -0.2748
      3 N          62.9169   88.2842   12.0985 N.am    1  UNL1       -0.2760
      4 C          62.6037   87.0966   11.2374 C.3     1  UNL1        0.1149
      5 C          62.9515   85.7158   11.7089 C.3     1  UNL1        0.1152
      6 N          63.6126   85.5226   13.0415 N.am    1  UNL1       -0.2726
      7 C          63.9604   84.1418   13.5130 C.2     1  UNL1        0.2491
      8 O          64.6214   83.9486   14.8455 O.2     1  UNL1       -0.2699
      9 C          63.9257   86.7102   13.9025 C.3     1  UNL1        0.1152
     10 C          63.5779   88.0910   13.4310 C.3     1  UNL1        0.1149
     11 C          63.6472   82.9541   12.6519 C.ar    1  UNL1        0.0537
     12 C          64.1245   82.9116   11.2305 C.ar    1  UNL1        0.0068
     13 C          63.8112   81.7239   10.3694 C.ar    1  UNL1        0.0298
     14 C          63.0208   80.5789   10.9298 C.ar    1  UNL1        0.1401
     15 F          62.7076   79.3912   10.0688 F       1  UNL1       -0.2042
     16 C          62.5435   80.6214   12.3512 C.ar    1  UNL1        0.0298
     17 C          62.8567   81.8090   13.2123 C.ar    1  UNL1        0.0068
     18 C          62.8822   90.8527   12.4880 C.3     1  UNL1        0.1010
     19 N          64.9441   92.2571   11.7624 N.3     1  UNL1       -0.3215
     20 C          64.3070   91.2724   12.6975 C.3     1  UNL1        0.0644
     21 H          64.2695   92.5341   11.0492 H       1  UNL1        0.1188
     22 H          65.7538   91.8269   11.3156 H       1  UNL1        0.1188
     23 C          65.0948   90.7073   13.8421 C.3     1  UNL1        0.0447
     24 C          66.2159   91.5007   14.4450 C.ar    1  UNL1        0.0090
     25 C          67.5596   91.5264   13.7787 C.ar    1  UNL1        0.0300
     26 C          68.6807   92.3198   14.3817 C.ar    1  UNL1        0.1672
     27 F          70.0243   92.3454   13.7154 F       1  UNL1       -0.2018
     28 C          68.4582   93.0876   15.6509 C.ar    1  UNL1        0.1696
     29 F          69.5792   93.8810   16.2538 F       1  UNL1       -0.2017
     30 C          67.1145   93.0620   16.3172 C.ar    1  UNL1        0.0612
     31 C          65.9933   92.2686   15.7143 C.ar    1  UNL1        0.1386
     32 F          64.6497   92.2430   16.3805 F       1  UNL1       -0.2044
@<TRIPOS>BOND
     1    20    19    1
     2    20    18    1
     3    18     1    1
     4     1     2    2
     5     1     3   am
     6     3     4    1
     7     4     5    1
     8     5     6    1
     9     6     7   am
    10     7     8    2
    11     7    11    1
    12    11    12   ar
    13    12    13   ar
    14    13    14   ar
    15    14    15    1
    16    14    16   ar
    17    16    17   ar
    18     6     9    1
    19     9    10    1
    20    20    23    1
    21    23    24    1
    22    24    25   ar
    23    25    26   ar
    24    26    27    1
    25    26    28   ar
    26    28    29    1
    27    28    30   ar
    28    30    31   ar
    29    31    32    1
    30    10     3    1
    31    31    24   ar
    32    17    11   ar
    33    19    21    1
    34    19    22    1
@<TRIPOS>MOLECULE
*****
 32 34 0 0 0
SMALL
GASTEIGER

@<TRIPOS>ATOM
      1 C          63.4281   89.9550   13.5255 C.2     1  UNL1        0.2271
      2 O          62.8422   90.5091   12.2607 O.2     1  UNL1       -0.2748
      3 N          63.6366   88.4766   13.6707 N.am    1  UNL1       -0.2760
      4 C          63.2592   87.5524   12.5512 C.3     1  UNL1        0.1149
      5 C          63.4677   86.0741   12.6964 C.3     1  UNL1        0.1152
      6 N          64.0536   85.5200   13.9612 N.am    1  UNL1       -0.2726
      7 C          64.2621   84.0417   14.1064 C.2     1  UNL1        0.2491
      8 O          64.8481   83.4876   15.3712 O.2     1  UNL1       -0.2699
      9 C          64.4311   86.4442   15.0807 C.3     1  UNL1        0.1152
     10 C          64.2226   87.9225   14.9354 C.3     1  UNL1        0.1149
     11 C          63.8846   83.1175   12.9869 C.ar    1  UNL1        0.0537
     12 C          62.8535   82.0511   13.2100 C.ar    1  UNL1        0.0068
     13 C          62.4761   81.1269   12.0904 C.ar    1  UNL1        0.0298
     14 C          63.1297   81.2690   10.7478 C.ar    1  UNL1        0.1401
     15 F          62.7522   80.3448    9.6283 F       1  UNL1       -0.2042
     16 C          64.1608   82.3354   10.5248 C.ar    1  UNL1        0.0298
     17 C          64.5383   83.2596   11.6443 C.ar    1  UNL1        0.0068
     18 C          63.8056   90.8792   14.6450 C.3     1  UNL1        0.1010
     19 N          65.4908   92.5450   15.7105 N.3     1  UNL1       -0.3215
     20 C          65.0532   91.7062   14.5465 C.3     1  UNL1        0.0644
     21 H          64.8284   92.4334   16.4781 H       1  UNL1        0.1188
     22 H          65.5240   93.5251   15.4299 H       1  UNL1        0.1188
     23 C          65.8632   91.6944   13.2841 C.3     1  UNL1        0.0447
     24 C          65.8166   92.8688   12.3521 C.ar    1  UNL1        0.0090
     25 C          66.2553   94.2220   12.8282 C.ar    1  UNL1        0.0300
     26 C          66.2086   95.3964   11.8963 C.ar    1  UNL1        0.1672
     27 F          66.6473   96.7494   12.3724 F       1  UNL1       -0.2018
     28 C          65.7234   95.2177   10.4882 C.ar    1  UNL1        0.1696
     29 F          65.6767   96.3921    9.5563 F       1  UNL1       -0.2017
     30 C          65.2847   93.8647   10.0121 C.ar    1  UNL1        0.0612
     31 C          65.3313   92.6902   10.9441 C.ar    1  UNL1        0.1386
     32 F          64.8926   91.3371   10.4680 F       1  UNL1       -0.2044
@<TRIPOS>BOND
     1    20    19    1
     2    20    18    1
     3    18     1    1
     4     1     2    2
     5     1     3   am
     6     3     4    1
     7     4     5    1
     8     5     6    1
     9     6     7   am
    10     7     8    2
    11     7    11    1
    12    11    12   ar
    13    12    13   ar
    14    13    14   ar
    15    14    15    1
    16    14    16   ar
    17    16    17   ar
    18     6     9    1
    19     9    10    1
    20    20    23    1
    21    23    24    1
    22    24    25   ar
    23    25    26   ar
    24    26    27    1
    25    26    28   ar
    26    28    29    1
    27    28    30   ar
    28    30    31   ar
    29    31    32    1
    30    10     3    1
    31    31    24   ar
    32    17    11   ar
    33    19    21    1
    34    19    22    1
@<TRIPOS>MOLECULE
*****
 32 34 0 0 0
SMALL
GASTEIGER

@<TRIPOS>ATOM
      1 C          62.9202   89.5411   11.6003 C.2     1  UNL1        0.2271
      2 O          62.1837   89.4996   10.2942 O.2     1  UNL1       -0.2748
      3 N          63.1890   88.2701   12.3504 N.am    1  UNL1       -0.2760
      4 C          62.7213   86.9579   11.7944 C.3     1  UNL1        0.1149
      5 C          62.9901   85.6870   12.5445 C.3     1  UNL1        0.1152
      6 N          63.7265   85.7285   13.8506 N.am    1  UNL1       -0.2726
      7 C          63.9953   84.4575   14.6007 C.2     1  UNL1        0.2491
      8 O          64.7318   84.4990   15.9068 O.2     1  UNL1       -0.2699
      9 C          64.1942   87.0407   14.4066 C.3     1  UNL1        0.1152
     10 C          63.9255   88.3116   13.6565 C.3     1  UNL1        0.1149
     11 C          63.5276   83.1453   14.0447 C.ar    1  UNL1        0.0537
     12 C          64.2977   82.4806   12.9424 C.ar    1  UNL1        0.0068
     13 C          63.8300   81.1682   12.3864 C.ar    1  UNL1        0.0298
     14 C          62.5922   80.5207   12.9328 C.ar    1  UNL1        0.1401
     15 F          62.1245   79.2084   12.3768 F       1  UNL1       -0.2042
     16 C          61.8221   81.1854   14.0351 C.ar    1  UNL1        0.0298
     17 C          62.2898   82.4977   14.5911 C.ar    1  UNL1        0.0068
     18 C          63.3879   90.8533   12.1563 C.3     1  UNL1        0.1010
     19 N          63.4748   92.0676    9.8611 N.3     1  UNL1       -0.3215
     20 C          64.0093   91.8735   11.2491 C.3     1  UNL1        0.0644
     21 H          62.6957   91.4282    9.7043 H       1  UNL1        0.1188
     22 H          64.2125   91.8773    9.1829 H       1  UNL1        0.1188
     23 C          65.1653   92.6996   11.7299 C.3     1  UNL1        0.0447
     24 C          66.0612   93.3837   10.7402 C.ar    1  UNL1        0.0090
     25 C          67.0699   92.5876    9.9663 C.ar    1  UNL1        0.0300
     26 C          67.9658   93.2717    8.9767 C.ar    1  UNL1        0.1672
     27 F          68.9745   92.4756    8.2029 F       1  UNL1       -0.2018
     28 C          67.8530   94.7518    8.7609 C.ar    1  UNL1        0.1696
     29 F          68.7489   95.4358    7.7712 F       1  UNL1       -0.2017
     30 C          66.8443   95.5478    9.5347 C.ar    1  UNL1        0.0612
     31 C          65.9484   94.8638   10.5244 C.ar    1  UNL1        0.1386
     32 F          64.9397   95.6598   11.2982 F       1  UNL1       -0.2044
@<TRIPOS>BOND
     1    20    19    1
     2    20    18    1
     3    18     1    1
     4     1     2    2
     5     1     3   am
     6     3     4    1
     7     4     5    1
     8     5     6    1
     9     6     7   am
    10     7     8    2
    11     7    11    1
    12    11    12   ar
    13    12    13   ar
    14    13    14   ar
    15    14    15    1
    16    14    16   ar
    17    16    17   ar
    18     6     9    1
    19     9    10    1
    20    20    23    1
    21    23    24    1
    22    24    25   ar
    23    25    26   ar
    24    26    27    1
    25    26    28   ar
    26    28    29    1
    27    28    30   ar
    28    30    31   ar
    29    31    32    1
    30    10     3    1
    31    31    24   ar
    32    17    11   ar
    33    19    21    1
    34    19    22    1
@<TRIPOS>MOLECULE
*****
 32 34 0 0 0
SMALL
GASTEIGER

@<TRIPOS>ATOM
      1 C          61.5351   90.2646    9.8646 C.2     1  UNL1        0.2271
      2 O          62.1382   90.7960    8.5982 O.2     1  UNL1       -0.2748
      3 N          62.2629   90.4243   11.1666 N.am    1  UNL1       -0.2760
      4 C          63.5937   91.1155   11.2020 C.3     1  UNL1        0.1149
      5 C          64.3214   91.2752   12.5039 C.3     1  UNL1        0.1152
      6 N          63.7183   90.7438   13.7703 N.am    1  UNL1       -0.2726
      7 C          64.4461   90.9035   15.0722 C.2     1  UNL1        0.2491
      8 O          63.8430   90.3721   16.3386 O.2     1  UNL1       -0.2699
      9 C          62.3875   90.0526   13.7349 C.3     1  UNL1        0.1152
     10 C          61.6598   89.8929   12.4330 C.3     1  UNL1        0.1149
     11 C          65.7768   91.5947   15.1076 C.ar    1  UNL1        0.0537
     12 C          66.8053   91.2960   14.0574 C.ar    1  UNL1        0.0068
     13 C          68.1361   91.9872   14.0929 C.ar    1  UNL1        0.0298
     14 C          68.4384   92.9771   15.1785 C.ar    1  UNL1        0.1401
     15 F          69.7692   93.6682   15.2140 F       1  UNL1       -0.2042
     16 C          67.4100   93.2758   16.2288 C.ar    1  UNL1        0.0298
     17 C          66.0792   92.5846   16.1934 C.ar    1  UNL1        0.0068
     18 C          60.2044   89.5734    9.8292 C.3     1  UNL1        0.1010
     19 N          59.5916   89.4975    7.3056 N.3     1  UNL1       -0.3215
     20 C          59.7962   88.7939    8.6144 C.3     1  UNL1        0.0644
     21 H          59.7716   90.4945    7.4238 H       1  UNL1        0.1188
     22 H          58.6306   89.3604    6.9924 H       1  UNL1        0.1188
     23 C          59.5926   87.3108    8.7084 C.3     1  UNL1        0.0447
     24 C          60.7746   86.3997    8.8598 C.ar    1  UNL1        0.0090
     25 C          61.4173   85.7968    7.6459 C.ar    1  UNL1        0.0300
     26 C          62.5992   84.8857    7.7973 C.ar    1  UNL1        0.1672
     27 F          63.2418   84.2830    6.5834 F       1  UNL1       -0.2018
     28 C          63.1384   84.5775    9.1626 C.ar    1  UNL1        0.1696
     29 F          64.3203   83.6664    9.3141 F       1  UNL1       -0.2017
     30 C          62.4958   85.1803   10.3765 C.ar    1  UNL1        0.0612
     31 C          61.3138   86.0914   10.2251 C.ar    1  UNL1        0.1386
     32 F          60.6712   86.6942   11.4391 F       1  UNL1       -0.2044
@<TRIPOS>BOND
     1    20    19    1
     2    20    18    1
     3    18     1    1
     4     1     2    2
     5     1     3   am
     6     3     4    1
     7     4     5    1
     8     5     6    1
     9     6     7   am
    10     7     8    2
    11     7    11    1
    12    11    12   ar
    13    12    13   ar
    14    13    14   ar
    15    14    15    1
    16    14    16   ar
    17    16    17   ar
    18     6     9    1
    19     9    10    1
    20    20    23    1
    21    23    24    1
    22    24    25   ar
    23    25    26   ar
    24    26    27    1
    25    26    28   ar
    26    28    29    1
    27    28    30   ar
    28    30    31   ar
    29    31    32    1
    30    10     3    1
    31    31    24   ar
    32    17    11   ar
    33    19    21    1
    34    19    22    1
