@<TRIPOS>MOLECULE
*****
 31 33 0 0 0
SMALL
GASTEIGER

@<TRIPOS>ATOM
      1 C          60.1871   89.6285    9.4866 C.3     1  UNL1        0.0898
      2 O          61.3638   89.3855   12.2354 O.2     1  UNL1       -0.2684
      3 C          62.0412   90.2361   11.2021 C.2     1  UNL1        0.2669
      4 N          61.4528   90.3575    9.8277 N.am    1  UNL1       -0.2995
      5 H          61.8974   90.9158    9.1495 H       1  UNL1        0.1498
      6 C          63.3070   90.9652   11.5432 C.ar    1  UNL1        0.1761
      7 C          64.0146   90.9319   12.8654 C.ar    1  UNL1        0.0672
      8 C          65.2323   91.8017   12.7614 C.ar    1  UNL1        0.1770
      9 O          65.2772   92.3724   11.3749 O.2     1  UNL1       -0.3533
     10 N          64.0873   91.8554   10.6221 N.ar    1  UNL1       -0.0723
     11 C          66.2299   92.0560   13.8523 C.ar    1  UNL1        0.0372
     12 C          67.6987   91.9659   13.5614 C.ar    1  UNL1        0.0031
     13 C          68.6962   92.2203   14.6523 C.ar    1  UNL1        0.0001
     14 C          68.2251   92.5646   16.0341 C.ar    1  UNL1        0.0000
     15 C          66.7563   92.6547   16.3250 C.ar    1  UNL1        0.0001
     16 C          65.7587   92.4004   15.2341 C.ar    1  UNL1        0.0031
     17 C          60.2498   88.3091    8.7756 C.3     1  UNL1        0.0230
     18 C          60.3782   87.0385    9.5623 C.3     1  UNL1        0.0230
     19 C          61.7306   86.5638   10.0047 C.3     1  UNL1        0.0898
     20 N          61.8821   85.2094   10.6314 N.am    1  UNL1       -0.3007
     21 C          62.5323   85.0737   11.9762 C.2     1  UNL1        0.2504
     22 O          63.0311   86.2924   12.6945 O.2     1  UNL1       -0.2700
     23 H          61.5547   84.4095   10.1599 H       1  UNL1        0.1497
     24 C          62.6838   83.7193   12.6029 C.ar    1  UNL1        0.1062
     25 C          62.8333   82.5043   11.7360 C.ar    1  UNL1        0.0108
     26 C          62.9848   81.1500   12.3627 C.ar    1  UNL1        0.0210
     27 C          62.9868   81.0106   13.8562 C.ar    1  UNL1        0.1021
     28 N          62.8372   82.2255   14.7230 N.ar    1  UNL1       -0.2102
     29 C          62.6858   83.5799   14.0964 C.ar    1  UNL1        0.2260
     30 O          62.5362   84.7949   14.9632 O.3     1  UNL1       -0.4919
     31 H          62.5374   84.7079   15.8962 H       1  UNL1        0.2938
@<TRIPOS>BOND
     1     2     3    2
     2     3     4   am
     3     4     1    1
     4     1    17    1
     5    17    18    1
     6    18    19    1
     7    19    20    1
     8    20    21   am
     9    21    22    2
    10    21    24    1
    11    24    25   ar
    12    25    26   ar
    13    26    27   ar
    14    27    28   ar
    15    28    29   ar
    16    29    30    1
    17     3     6    1
    18     6     7   ar
    19     7     8   ar
    20     8    11    1
    21    11    12   ar
    22    12    13   ar
    23    13    14   ar
    24    14    15   ar
    25    15    16   ar
    26     8     9   ar
    27     9    10   ar
    28    29    24   ar
    29    10     6   ar
    30    16    11   ar
    31     4     5    1
    32    20    23    1
    33    30    31    1
@<TRIPOS>MOLECULE
*****
 31 33 0 0 0
SMALL
GASTEIGER

@<TRIPOS>ATOM
      1 C          60.2247   88.9284   11.5616 C.3     1  UNL1        0.0898
      2 O          63.0472   88.3808   12.4178 O.2     1  UNL1       -0.2684
      3 C          62.6251   89.7789   12.0756 C.2     1  UNL1        0.2669
      4 N          61.2138   90.0527   11.6475 N.am    1  UNL1       -0.2995
      5 H          60.9368   90.9703   11.4229 H       1  UNL1        0.1498
      6 C          63.6143   90.9033   12.1615 C.ar    1  UNL1        0.1761
      7 C          64.2790   91.5834   11.0015 C.ar    1  UNL1        0.0672
      8 C          65.1880   92.6453   11.5455 C.ar    1  UNL1        0.1770
      9 O          65.0851   92.6215   13.0418 O.2     1  UNL1       -0.3533
     10 N          64.1125   91.5449   13.4225 N.ar    1  UNL1       -0.0723
     11 C          66.0488   93.5689   10.7355 C.ar    1  UNL1        0.0372
     12 C          65.8043   95.0484   10.7737 C.ar    1  UNL1        0.0031
     13 C          66.6651   95.9719    9.9637 C.ar    1  UNL1        0.0001
     14 C          67.7702   95.4160    9.1155 C.ar    1  UNL1        0.0000
     15 C          68.0147   93.9365    9.0773 C.ar    1  UNL1        0.0001
     16 C          67.1539   93.0130    9.8873 C.ar    1  UNL1        0.0031
     17 C          60.0688   88.1628   10.2811 C.3     1  UNL1        0.0230
     18 C          61.2425   87.9890    9.3635 C.3     1  UNL1        0.0230
     19 C          62.0817   86.7485    9.4459 C.3     1  UNL1        0.0898
     20 N          62.0452   85.8990   10.6817 N.am    1  UNL1       -0.3007
     21 C          62.8068   84.6076   10.7268 C.2     1  UNL1        0.2504
     22 O          63.6050   84.1656    9.5362 O.2     1  UNL1       -0.2700
     23 H          61.5213   86.1891   11.4632 H       1  UNL1        0.1497
     24 C          62.7703   83.7581   11.9626 C.ar    1  UNL1        0.1062
     25 C          62.5127   82.2845   11.8524 C.ar    1  UNL1        0.0108
     26 C          62.4762   81.4351   13.0881 C.ar    1  UNL1        0.0210
     27 C          62.6973   82.0592   14.4341 C.ar    1  UNL1        0.1021
     28 N          62.9548   83.5328   14.5443 N.ar    1  UNL1       -0.2102
     29 C          62.9913   84.3822   13.3086 C.ar    1  UNL1        0.2260
     30 O          63.2489   85.8559   13.4187 O.3     1  UNL1       -0.4919
     31 H          63.3870   86.2458   14.2595 H       1  UNL1        0.2938
@<TRIPOS>BOND
     1     2     3    2
     2     3     4   am
     3     4     1    1
     4     1    17    1
     5    17    18    1
     6    18    19    1
     7    19    20    1
     8    20    21   am
     9    21    22    2
    10    21    24    1
    11    24    25   ar
    12    25    26   ar
    13    26    27   ar
    14    27    28   ar
    15    28    29   ar
    16    29    30    1
    17     3     6    1
    18     6     7   ar
    19     7     8   ar
    20     8    11    1
    21    11    12   ar
    22    12    13   ar
    23    13    14   ar
    24    14    15   ar
    25    15    16   ar
    26     8     9   ar
    27     9    10   ar
    28    29    24   ar
    29    10     6   ar
    30    16    11   ar
    31     4     5    1
    32    20    23    1
    33    30    31    1
@<TRIPOS>MOLECULE
*****
 31 33 0 0 0
SMALL
GASTEIGER

@<TRIPOS>ATOM
      1 C          62.4664   88.9532   16.4791 C.3     1  UNL1        0.0898
      2 O          63.2595   89.1777   13.5946 O.2     1  UNL1       -0.2684
      3 C          63.7365   90.1980   14.5852 C.2     1  UNL1        0.2669
      4 N          63.3400   90.0858   16.0275 N.am    1  UNL1       -0.2995
      5 H          63.6531   90.7554   16.6776 H       1  UNL1        0.1498
      6 C          64.6102   91.3307   14.1335 C.ar    1  UNL1        0.1761
      7 C          64.9517   91.6682   12.7124 C.ar    1  UNL1        0.0672
      8 C          65.8482   92.8707   12.7242 C.ar    1  UNL1        0.1770
      9 O          66.0608   93.2764   14.1526 O.2     1  UNL1       -0.3533
     10 N          65.2957   92.3246   15.0236 N.ar    1  UNL1       -0.0723
     11 C          66.4300   93.5485   11.5192 C.ar    1  UNL1        0.0372
     12 C          66.2494   95.0255   11.3292 C.ar    1  UNL1        0.0031
     13 C          66.8311   95.7033   10.1242 C.ar    1  UNL1        0.0001
     14 C          67.5936   94.9042    9.1092 C.ar    1  UNL1        0.0000
     15 C          67.7742   93.4273    9.2992 C.ar    1  UNL1        0.0001
     16 C          67.1924   92.7495   10.5042 C.ar    1  UNL1        0.0031
     17 C          63.0411   87.8520   17.3201 C.3     1  UNL1        0.0230
     18 C          63.0511   86.4429   16.8060 C.3     1  UNL1        0.0230
     19 C          64.1241   85.9986   15.8567 C.3     1  UNL1        0.0898
     20 N          63.9747   84.7081   15.1067 N.am    1  UNL1       -0.3007
     21 C          63.4904   84.7175   13.6871 C.2     1  UNL1        0.2504
     22 O          63.1555   86.0173   13.0174 O.2     1  UNL1       -0.2700
     23 H          64.1945   83.8551   15.5462 H       1  UNL1        0.1497
     24 C          63.3410   83.4270   12.9371 C.ar    1  UNL1        0.1062
     25 C          63.7667   83.3404   11.5014 C.ar    1  UNL1        0.0108
     26 C          63.6173   82.0500   10.7514 C.ar    1  UNL1        0.0210
     27 C          63.0422   80.8462   11.4372 C.ar    1  UNL1        0.1021
     28 N          62.6165   80.9329   12.8729 N.ar    1  UNL1       -0.2102
     29 C          62.7659   82.2233   13.6228 C.ar    1  UNL1        0.2260
     30 O          62.3402   82.3100   15.0586 O.3     1  UNL1       -0.4919
     31 H          61.9810   81.5581   15.4869 H       1  UNL1        0.2938
@<TRIPOS>BOND
     1     2     3    2
     2     3     4   am
     3     4     1    1
     4     1    17    1
     5    17    18    1
     6    18    19    1
     7    19    20    1
     8    20    21   am
     9    21    22    2
    10    21    24    1
    11    24    25   ar
    12    25    26   ar
    13    26    27   ar
    14    27    28   ar
    15    28    29   ar
    16    29    30    1
    17     3     6    1
    18     6     7   ar
    19     7     8   ar
    20     8    11    1
    21    11    12   ar
    22    12    13   ar
    23    13    14   ar
    24    14    15   ar
    25    15    16   ar
    26     8     9   ar
    27     9    10   ar
    28    29    24   ar
    29    10     6   ar
    30    16    11   ar
    31     4     5    1
    32    20    23    1
    33    30    31    1
@<TRIPOS>MOLECULE
*****
 31 33 0 0 0
SMALL
GASTEIGER

@<TRIPOS>ATOM
      1 C          63.4126   89.8655   16.1809 C.3     1  UNL1        0.0898
      2 O          64.3564   91.6506   13.9623 O.2     1  UNL1       -0.2684
      3 C          63.4432   90.4993   13.6616 C.2     1  UNL1        0.2669
      4 N          62.9713   89.6067   14.7709 N.am    1  UNL1       -0.2995
      5 H          62.3719   88.8511   14.5735 H       1  UNL1        0.1498
      6 C          63.0019   90.2405   12.2515 C.ar    1  UNL1        0.1761
      7 C          62.2417   89.0396   11.7718 C.ar    1  UNL1        0.0672
      8 C          62.0132   89.1941   10.2974 C.ar    1  UNL1        0.1770
      9 O          62.6323   90.4905    9.8658 O.2     1  UNL1       -0.3533
     10 N          63.2433   91.1372   11.0735 N.ar    1  UNL1       -0.0723
     11 C          61.2924   88.2228    9.4104 C.ar    1  UNL1        0.0372
     12 C          60.0444   88.6455    8.6934 C.ar    1  UNL1        0.0031
     13 C          59.3236   87.6742    7.8064 C.ar    1  UNL1        0.0001
     14 C          59.8506   86.2802    7.6363 C.ar    1  UNL1        0.0000
     15 C          61.0986   85.8575    8.3532 C.ar    1  UNL1        0.0001
     16 C          61.8195   86.8288    9.2403 C.ar    1  UNL1        0.0031
     17 C          63.0939   88.8740   17.2605 C.3     1  UNL1        0.0230
     18 C          62.4061   87.5861   16.9167 C.3     1  UNL1        0.0230
     19 C          63.1349   86.2836   17.0658 C.3     1  UNL1        0.0898
     20 N          63.0374   85.2422   15.9905 N.am    1  UNL1       -0.3007
     21 C          63.5671   85.5304   14.6171 C.2     1  UNL1        0.2504
     22 O          64.1944   86.8599   14.3189 O.2     1  UNL1       -0.2700
     23 H          62.6257   84.3696   16.1863 H       1  UNL1        0.1497
     24 C          63.4696   84.4890   13.5419 C.ar    1  UNL1        0.1062
     25 C          63.1185   84.8895   12.1396 C.ar    1  UNL1        0.0108
     26 C          63.0210   83.8481   11.0645 C.ar    1  UNL1        0.0210
     27 C          63.2746   82.4063   11.3915 C.ar    1  UNL1        0.1021
     28 N          63.6258   82.0059   12.7938 N.ar    1  UNL1       -0.2102
     29 C          63.7233   83.0473   13.8689 C.ar    1  UNL1        0.2260
     30 O          64.0744   82.6469   15.2713 O.3     1  UNL1       -0.4919
     31 H          64.2329   81.7463   15.4756 H       1  UNL1        0.2938
@<TRIPOS>BOND
     1     2     3    2
     2     3     4   am
     3     4     1    1
     4     1    17    1
     5    17    18    1
     6    18    19    1
     7    19    20    1
     8    20    21   am
     9    21    22    2
    10    21    24    1
    11    24    25   ar
    12    25    26   ar
    13    26    27   ar
    14    27    28   ar
    15    28    29   ar
    16    29    30    1
    17     3     6    1
    18     6     7   ar
    19     7     8   ar
    20     8    11    1
    21    11    12   ar
    22    12    13   ar
    23    13    14   ar
    24    14    15   ar
    25    15    16   ar
    26     8     9   ar
    27     9    10   ar
    28    29    24   ar
    29    10     6   ar
    30    16    11   ar
    31     4     5    1
    32    20    23    1
    33    30    31    1
@<TRIPOS>MOLECULE
*****
 31 33 0 0 0
SMALL
GASTEIGER

@<TRIPOS>ATOM
      1 C          63.9227   87.1262   15.1254 C.3     1  UNL1        0.0898
      2 O          62.7020   89.8163   15.6478 O.2     1  UNL1       -0.2684
      3 C          64.0102   89.7147   14.9209 C.2     1  UNL1        0.2669
      4 N          64.6205   88.3696   14.6597 N.am    1  UNL1       -0.2995
      5 H          65.4791   88.3029   14.1827 H       1  UNL1        0.1498
      6 C          64.7081   90.9582   14.4553 C.ar    1  UNL1        0.1761
      7 C          65.1226   91.2614   13.0459 C.ar    1  UNL1        0.0672
      8 C          65.7846   92.6073   13.0368 C.ar    1  UNL1        0.1770
      9 O          65.7793   93.1360   14.4406 O.2     1  UNL1       -0.3533
     10 N          65.1140   92.1168   15.3172 N.ar    1  UNL1       -0.0723
     11 C          66.3523   93.3025   11.8349 C.ar    1  UNL1        0.0372
     12 C          67.0619   92.5114   10.7764 C.ar    1  UNL1        0.0031
     13 C          67.6296   93.2066    9.5746 C.ar    1  UNL1        0.0001
     14 C          67.4876   94.6930    9.4313 C.ar    1  UNL1        0.0000
     15 C          66.7780   95.4841   10.4899 C.ar    1  UNL1        0.0001
     16 C          66.2103   94.7889   11.6917 C.ar    1  UNL1        0.0031
     17 C          64.5598   85.7847   14.9142 C.3     1  UNL1        0.0230
     18 C          63.7025   84.5722   14.7026 C.3     1  UNL1        0.0230
     19 C          63.0868   84.3141   13.3594 C.3     1  UNL1        0.0898
     20 N          62.3823   85.4209   12.6321 N.am    1  UNL1       -0.3007
     21 C          62.4015   85.4644   11.1329 C.2     1  UNL1        0.2504
     22 O          63.1253   84.4013   10.3609 O.2     1  UNL1       -0.2700
     23 H          61.9072   86.1186   13.1388 H       1  UNL1        0.1497
     24 C          61.6970   86.5712   10.4056 C.ar    1  UNL1        0.1062
     25 C          60.8104   86.2557    9.2376 C.ar    1  UNL1        0.0108
     26 C          60.1060   87.3624    8.5103 C.ar    1  UNL1        0.0210
     27 C          60.2881   88.7846    8.9512 C.ar    1  UNL1        0.1021
     28 N          61.1746   89.1000   10.1193 N.ar    1  UNL1       -0.2102
     29 C          61.8791   87.9933   10.8465 C.ar    1  UNL1        0.2260
     30 O          62.7657   88.3087   12.0146 O.3     1  UNL1       -0.4919
     31 H          62.8795   89.1971   12.2901 H       1  UNL1        0.2938
@<TRIPOS>BOND
     1     2     3    2
     2     3     4   am
     3     4     1    1
     4     1    17    1
     5    17    18    1
     6    18    19    1
     7    19    20    1
     8    20    21   am
     9    21    22    2
    10    21    24    1
    11    24    25   ar
    12    25    26   ar
    13    26    27   ar
    14    27    28   ar
    15    28    29   ar
    16    29    30    1
    17     3     6    1
    18     6     7   ar
    19     7     8   ar
    20     8    11    1
    21    11    12   ar
    22    12    13   ar
    23    13    14   ar
    24    14    15   ar
    25    15    16   ar
    26     8     9   ar
    27     9    10   ar
    28    29    24   ar
    29    10     6   ar
    30    16    11   ar
    31     4     5    1
    32    20    23    1
    33    30    31    1
@<TRIPOS>MOLECULE
*****
 31 33 0 0 0
SMALL
GASTEIGER

@<TRIPOS>ATOM
      1 C          60.4075   86.7279    8.7878 C.3     1  UNL1        0.0898
      2 O          61.4303   87.2187   11.5650 O.2     1  UNL1       -0.2684
      3 C          61.6934   88.2213   10.4807 C.2     1  UNL1        0.2669
      4 N          61.1820   87.9759    9.0921 N.am    1  UNL1       -0.2995
      5 H          61.3546   88.6340    8.3805 H       1  UNL1        0.1498
      6 C          62.4679   89.4694   10.7851 C.ar    1  UNL1        0.1761
      7 C          63.3111   89.7089   12.0024 C.ar    1  UNL1        0.0672
      8 C          63.8995   91.0845   11.8953 C.ar    1  UNL1        0.1770
      9 O          63.4199   91.6952   10.6118 O.2     1  UNL1       -0.3533
     10 N          62.5352   90.6969    9.9257 N.ar    1  UNL1       -0.0723
     11 C          64.8079   91.7353   12.8959 C.ar    1  UNL1        0.0372
     12 C          64.9180   91.1765   14.2836 C.ar    1  UNL1        0.0031
     13 C          65.8264   91.8273   15.2843 C.ar    1  UNL1        0.0001
     14 C          66.6247   93.0367   14.8972 C.ar    1  UNL1        0.0000
     15 C          66.5146   93.5955   13.5095 C.ar    1  UNL1        0.0001
     16 C          65.6062   92.9447   12.5089 C.ar    1  UNL1        0.0031
     17 C          60.8126   85.8558    7.6365 C.3     1  UNL1        0.0230
     18 C          62.1657   85.2086    7.6257 C.3     1  UNL1        0.0230
     19 C          63.0499   85.2989    8.8340 C.3     1  UNL1        0.0898
     20 N          62.6142   84.6821   10.1300 N.am    1  UNL1       -0.3007
     21 C          63.4033   83.5546   10.7267 C.2     1  UNL1        0.2504
     22 O          64.6280   83.0438   10.0274 O.2     1  UNL1       -0.2700
     23 H          61.8104   85.0173   10.5891 H       1  UNL1        0.1497
     24 C          62.9676   82.9377   12.0228 C.ar    1  UNL1        0.1062
     25 C          62.7568   81.4555   12.1145 C.ar    1  UNL1        0.0108
     26 C          62.3211   80.8387   13.4105 C.ar    1  UNL1        0.0210
     27 C          62.0962   81.7042   14.6149 C.ar    1  UNL1        0.1021
     28 N          62.3070   83.1865   14.5231 N.ar    1  UNL1       -0.2102
     29 C          62.7427   83.8032   13.2271 C.ar    1  UNL1        0.2260
     30 O          62.9535   85.2856   13.1353 O.3     1  UNL1       -0.4919
     31 H          62.8131   85.8262   13.8876 H       1  UNL1        0.2938
@<TRIPOS>BOND
     1     2     3    2
     2     3     4   am
     3     4     1    1
     4     1    17    1
     5    17    18    1
     6    18    19    1
     7    19    20    1
     8    20    21   am
     9    21    22    2
    10    21    24    1
    11    24    25   ar
    12    25    26   ar
    13    26    27   ar
    14    27    28   ar
    15    28    29   ar
    16    29    30    1
    17     3     6    1
    18     6     7   ar
    19     7     8   ar
    20     8    11    1
    21    11    12   ar
    22    12    13   ar
    23    13    14   ar
    24    14    15   ar
    25    15    16   ar
    26     8     9   ar
    27     9    10   ar
    28    29    24   ar
    29    10     6   ar
    30    16    11   ar
    31     4     5    1
    32    20    23    1
    33    30    31    1
@<TRIPOS>MOLECULE
*****
 31 33 0 0 0
SMALL
GASTEIGER

@<TRIPOS>ATOM
      1 C          59.9598   90.0547   10.4789 C.3     1  UNL1        0.0898
      2 O          62.7125   91.1831   10.0925 O.2     1  UNL1       -0.2684
      3 C          62.3196   90.6014   11.4182 C.2     1  UNL1        0.2669
      4 N          60.9433   90.0372   11.6114 N.am    1  UNL1       -0.2995
      5 H          60.6854   89.6554   12.4814 H       1  UNL1        0.1498
      6 C          63.3031   90.5839   12.5506 C.ar    1  UNL1        0.1761
      7 C          64.4954   91.4824   12.6969 C.ar    1  UNL1        0.0672
      8 C          65.1962   91.1187   13.9722 C.ar    1  UNL1        0.1770
      9 O          64.4371   89.9955   14.6143 O.2     1  UNL1       -0.3533
     10 N          63.2671   89.6650   13.7357 N.ar    1  UNL1       -0.0723
     11 C          66.4381   91.7648   14.5110 C.ar    1  UNL1        0.0372
     12 C          66.3968   92.4922   15.8222 C.ar    1  UNL1        0.0031
     13 C          67.6386   93.1383   16.3610 C.ar    1  UNL1        0.0001
     14 C          68.9219   93.0569   15.5885 C.ar    1  UNL1        0.0000
     15 C          68.9632   92.3295   14.2773 C.ar    1  UNL1        0.0001
     16 C          67.7214   91.6835   13.7386 C.ar    1  UNL1        0.0031
     17 C          59.9874   88.9684    9.4448 C.3     1  UNL1        0.0230
     18 C          61.1481   88.0203    9.3837 C.3     1  UNL1        0.0230
     19 C          60.9446   86.5652    9.6857 C.3     1  UNL1        0.0898
     20 N          61.4019   86.0004   10.9980 N.am    1  UNL1       -0.3007
     21 C          62.4987   84.9778   11.0329 C.2     1  UNL1        0.2504
     22 O          63.1382   84.5200    9.7557 O.2     1  UNL1       -0.2700
     23 H          60.9821   86.3009   11.8363 H       1  UNL1        0.1497
     24 C          62.9560   84.4130   12.3452 C.ar    1  UNL1        0.1062
     25 C          62.9142   82.9321   12.5797 C.ar    1  UNL1        0.0108
     26 C          63.3715   82.3674   13.8919 C.ar    1  UNL1        0.0210
     27 C          63.8706   83.2836   14.9696 C.ar    1  UNL1        0.1021
     28 N          63.9123   84.7645   14.7351 N.ar    1  UNL1       -0.2102
     29 C          63.4550   85.3293   13.4229 C.ar    1  UNL1        0.2260
     30 O          63.4968   86.8103   13.1884 O.3     1  UNL1       -0.4919
     31 H          63.8085   87.3826   13.8616 H       1  UNL1        0.2938
@<TRIPOS>BOND
     1     2     3    2
     2     3     4   am
     3     4     1    1
     4     1    17    1
     5    17    18    1
     6    18    19    1
     7    19    20    1
     8    20    21   am
     9    21    22    2
    10    21    24    1
    11    24    25   ar
    12    25    26   ar
    13    26    27   ar
    14    27    28   ar
    15    28    29   ar
    16    29    30    1
    17     3     6    1
    18     6     7   ar
    19     7     8   ar
    20     8    11    1
    21    11    12   ar
    22    12    13   ar
    23    13    14   ar
    24    14    15   ar
    25    15    16   ar
    26     8     9   ar
    27     9    10   ar
    28    29    24   ar
    29    10     6   ar
    30    16    11   ar
    31     4     5    1
    32    20    23    1
    33    30    31    1
@<TRIPOS>MOLECULE
*****
 31 33 0 0 0
SMALL
GASTEIGER

@<TRIPOS>ATOM
      1 C          63.5450   90.3064   13.6947 C.3     1  UNL1        0.0898
      2 O          63.6675   88.4887   16.0781 O.2     1  UNL1       -0.2684
      3 C          63.7919   87.9215   14.6951 C.2     1  UNL1        0.2669
      4 N          63.7307   88.8303   13.5034 N.am    1  UNL1       -0.2995
      5 H          63.8124   88.4581   12.5957 H       1  UNL1        0.1498
      6 C          63.9777   86.4453   14.5038 C.ar    1  UNL1        0.1761
      7 C          63.5565   85.6521   13.3024 C.ar    1  UNL1        0.0672
      8 C          63.9356   84.2198   13.5363 C.ar    1  UNL1        0.1770
      9 O          64.5912   84.1278   14.8824 O.2     1  UNL1       -0.3533
     10 N          64.6171   85.5033   15.4803 N.ar    1  UNL1       -0.0723
     11 C          63.7006   83.0797   12.5904 C.ar    1  UNL1        0.0372
     12 C          64.1591   83.1804   11.1657 C.ar    1  UNL1        0.0031
     13 C          63.9240   82.0403   10.2198 C.ar    1  UNL1        0.0001
     14 C          63.2304   80.7994   10.6985 C.ar    1  UNL1        0.0000
     15 C          62.7719   80.6987   12.1232 C.ar    1  UNL1        0.0001
     16 C          63.0070   81.8388   13.0691 C.ar    1  UNL1        0.0031
     17 C          63.7795   91.2465   12.5496 C.3     1  UNL1        0.0230
     18 C          63.2041   90.9410   11.1985 C.3     1  UNL1        0.0230
     19 C          62.0890   89.9466   11.0656 C.3     1  UNL1        0.0898
     20 N          62.0914   88.9639    9.9324 N.am    1  UNL1       -0.3007
     21 C          61.5174   87.5920   10.1281 C.2     1  UNL1        0.2504
     22 O          60.9409   87.2027   11.4571 O.2     1  UNL1       -0.2700
     23 H          62.4697   89.2193    9.0601 H       1  UNL1        0.1497
     24 C          61.5198   86.6092    8.9948 C.ar    1  UNL1        0.1062
     25 C          62.7604   85.8253    8.6845 C.ar    1  UNL1        0.0108
     26 C          62.7628   84.8426    7.5513 C.ar    1  UNL1        0.0210
     27 C          61.5246   84.6438    6.7283 C.ar    1  UNL1        0.1021
     28 N          60.2839   85.4277    7.0386 N.ar    1  UNL1       -0.2102
     29 C          60.2816   86.4104    8.1719 C.ar    1  UNL1        0.2260
     30 O          59.0409   87.1944    8.4822 O.3     1  UNL1       -0.4919
     31 H          58.2674   87.0702    7.9681 H       1  UNL1        0.2938
@<TRIPOS>BOND
     1     2     3    2
     2     3     4   am
     3     4     1    1
     4     1    17    1
     5    17    18    1
     6    18    19    1
     7    19    20    1
     8    20    21   am
     9    21    22    2
    10    21    24    1
    11    24    25   ar
    12    25    26   ar
    13    26    27   ar
    14    27    28   ar
    15    28    29   ar
    16    29    30    1
    17     3     6    1
    18     6     7   ar
    19     7     8   ar
    20     8    11    1
    21    11    12   ar
    22    12    13   ar
    23    13    14   ar
    24    14    15   ar
    25    15    16   ar
    26     8     9   ar
    27     9    10   ar
    28    29    24   ar
    29    10     6   ar
    30    16    11   ar
    31     4     5    1
    32    20    23    1
    33    30    31    1
@<TRIPOS>MOLECULE
*****
 31 33 0 0 0
SMALL
GASTEIGER

@<TRIPOS>ATOM
      1 C          65.3268   91.8965   15.2343 C.3     1  UNL1        0.0898
      2 O          64.0373   91.9467   12.5261 O.2     1  UNL1       -0.2684
      3 C          64.1123   90.6624   13.2974 C.2     1  UNL1        0.2669
      4 N          64.7570   90.6373   14.6515 N.am    1  UNL1       -0.2995
      5 H          64.8062   89.7944   15.1578 H       1  UNL1        0.1498
      6 C          63.5424   89.4031   12.7146 C.ar    1  UNL1        0.1761
      7 C          62.7830   89.2930   11.4258 C.ar    1  UNL1        0.0672
      8 C          62.4032   87.8548   11.2329 C.ar    1  UNL1        0.1770
      9 O          62.9279   87.0760   12.4026 O.2     1  UNL1       -0.3533
     10 N          63.6320   88.0329   13.3183 N.ar    1  UNL1       -0.0723
     11 C          61.6338   87.2938   10.0739 C.ar    1  UNL1        0.0372
     12 C          60.2080   87.7035    9.8514 C.ar    1  UNL1        0.0031
     13 C          59.4386   87.1425    8.6924 C.ar    1  UNL1        0.0001
     14 C          60.0949   86.1720    7.7559 C.ar    1  UNL1        0.0000
     15 C          61.5207   85.7623    7.9783 C.ar    1  UNL1        0.0001
     16 C          62.2901   86.3233    9.1373 C.ar    1  UNL1        0.0031
     17 C          66.7701   91.9493   15.6396 C.3     1  UNL1        0.0230
     18 C          67.8325   92.1690   14.6037 C.3     1  UNL1        0.0230
     19 C          67.4970   92.0437   13.1471 C.3     1  UNL1        0.0898
     20 N          67.0496   93.2489   12.3741 N.am    1  UNL1       -0.3007
     21 C          67.0653   93.2262   10.8744 C.2     1  UNL1        0.2504
     22 O          67.5282   91.9985   10.1476 O.2     1  UNL1       -0.2700
     23 H          66.7458   94.0547   12.8511 H       1  UNL1        0.1497
     24 C          66.6179   94.4314   10.1014 C.ar    1  UNL1        0.1062
     25 C          65.6578   95.4045   10.7187 C.ar    1  UNL1        0.0108
     26 C          65.2105   96.6096    9.9457 C.ar    1  UNL1        0.0210
     27 C          65.7234   96.8416    8.5553 C.ar    1  UNL1        0.1021
     28 N          66.6835   95.8686    7.9380 N.ar    1  UNL1       -0.2102
     29 C          67.1308   94.6634    8.7110 C.ar    1  UNL1        0.2260
     30 O          68.0910   93.6903    8.0936 O.3     1  UNL1       -0.4919
     31 H          68.4114   93.8352    7.2251 H       1  UNL1        0.2938
@<TRIPOS>BOND
     1     2     3    2
     2     3     4   am
     3     4     1    1
     4     1    17    1
     5    17    18    1
     6    18    19    1
     7    19    20    1
     8    20    21   am
     9    21    22    2
    10    21    24    1
    11    24    25   ar
    12    25    26   ar
    13    26    27   ar
    14    27    28   ar
    15    28    29   ar
    16    29    30    1
    17     3     6    1
    18     6     7   ar
    19     7     8   ar
    20     8    11    1
    21    11    12   ar
    22    12    13   ar
    23    13    14   ar
    24    14    15   ar
    25    15    16   ar
    26     8     9   ar
    27     9    10   ar
    28    29    24   ar
    29    10     6   ar
    30    16    11   ar
    31     4     5    1
    32    20    23    1
    33    30    31    1
