@<TRIPOS>MOLECULE
*****
 45 50 0 0 0
SMALL
GASTEIGER

@<TRIPOS>ATOM
      1 C          62.8805   93.1541   -2.1600 C.3     1  UNL1        0.1217
      2 N          61.4342   93.4419   -2.4345 N.am    1  UNL1       -0.2392
      3 C          60.8436   93.8000   -3.7660 C.2     1  UNL1        0.3311
      4 O          61.5958   93.9331   -5.0570 O.2     1  UNL1       -0.2501
      5 N          59.3689   94.0016   -3.5800 N.am    1  UNL1       -0.1635
      6 C          59.0480   93.7681   -2.1335 C.2     1  UNL1        0.0849
      7 C          57.7584   93.8258   -1.3695 C.3     1  UNL1        0.1402
      8 CL         56.4821   94.1717   -2.0774 Cl      1  UNL1       -0.1039
      9 C          57.7453   93.5376    0.1025 C.2     1  UNL1       -0.0089
     10 C          59.0216   93.1917    0.8105 C.2     1  UNL1       -0.0255
     11 C          60.3112   93.1340    0.0465 C.2     1  UNL1        0.0082
     12 C          60.3244   93.4222   -1.4255 C.2     1  UNL1        0.0655
     13 C          61.6854   92.8118    0.5542 C.3     1  UNL1        0.1213
     14 N          62.1094   92.4677    1.9513 N.am    1  UNL1       -0.2676
     15 C          61.2640   92.3609    3.1856 C.2     1  UNL1        0.2264
     16 O          61.9932   91.9947    4.4443 O.2     1  UNL1       -0.2748
     17 C          59.7857   92.5717    3.3279 C.3     1  UNL1        0.0901
     18 C          58.7878   92.9414    2.2709 C.3     1  UNL1        0.0354
     19 C          63.5724   92.1944    2.1387 C.3     1  UNL1        0.1976
     20 C          64.5830   93.2446    1.7840 C.3     1  UNL1        0.4157
     21 F          65.5937   94.2947    1.4294 F       1  UNL1       -0.1682
     22 F          65.1079   92.3684    0.6855 F       1  UNL1       -0.1682
     23 F          64.0582   94.1207    2.8826 F       1  UNL1       -0.1682
     24 C          59.2322   92.3885    4.7100 C.3     1  UNL1        0.0947
     25 C          58.5179   91.1195    5.0697 C.2     1  UNL1        0.2261
     26 O          57.1805   90.8137    4.4629 O.2     1  UNL1       -0.2749
     27 N          59.1408   90.1563    6.0362 N.am    1  UNL1       -0.2794
     28 C          58.4265   88.8873    6.3960 C.3     1  UNL1        0.0951
     29 C          59.0494   87.9240    7.3624 C.3     1  UNL1        0.0414
     30 C          60.3868   88.2298    7.9692 C.3     1  UNL1        0.0803
     31 C          61.1010   89.4988    7.6095 C.3     1  UNL1        0.0414
     32 C          60.4781   90.4621    6.6430 C.3     1  UNL1        0.0951
     33 N          61.0096   87.2666    8.9357 N.am    1  UNL1       -0.2651
     34 C          61.8724   86.2007    8.3277 C.3     1  UNL1        0.0996
     35 C          62.6259   85.1017    9.0162 C.3     1  UNL1        0.0491
     36 C          62.7029   84.7970   10.4829 C.ar    1  UNL1       -0.0070
     37 C          63.5711   83.6032   10.7498 C.ar    1  UNL1       -0.0030
     38 C          63.7817   83.1286   12.1571 C.ar    1  UNL1       -0.0002
     39 C          63.1241   83.8477   13.2974 C.ar    1  UNL1        0.0013
     40 C          62.2559   85.0414   13.0306 C.ar    1  UNL1        0.0144
     41 C          62.0453   85.5160   11.6233 C.ar    1  UNL1        0.0476
     42 N          61.1484   86.7175   11.5787 N.am    1  UNL1       -0.2684
     43 C          60.6874   87.4965   10.3826 C.2     1  UNL1        0.3076
     44 O          59.7850   88.6593   10.6715 O.2     1  UNL1       -0.2522
     45 H          60.8186   87.0369   12.4495 H       1  UNL1        0.1564
@<TRIPOS>BOND
     1     1     2    1
     2     2     3   am
     3     3     4    2
     4     3     5    1
     5     5     6    2
     6     6     7    1
     7     7     8    1
     8     7     9    1
     9     9    10    2
    10    10    11    1
    11    11    12    2
    12    11    13    1
    13    13    14    1
    14    14    19    1
    15    19    20    1
    16    20    21    1
    17    20    22    1
    18    20    23    1
    19    14    15   am
    20    15    16    2
    21    15    17    1
    22    17    24    1
    23    24    25    1
    24    25    26    2
    25    25    27   am
    26    27    28    1
    27    28    29    1
    28    29    30    1
    29    30    33    1
    30    33    34    1
    31    34    35    1
    32    35    36    1
    33    36    37   ar
    34    37    38   ar
    35    38    39   ar
    36    39    40   ar
    37    40    41   ar
    38    41    42    1
    39    42    43   am
    40    43    44    2
    41    30    31    1
    42    31    32    1
    43    17    18    1
    44    12     2    1
    45    32    27    1
    46    12     6    1
    47    43    33   am
    48    18    10    1
    49    41    36   ar
    50    42    45    1
@<TRIPOS>MOLECULE
*****
 45 50 0 0 0
SMALL
GASTEIGER

@<TRIPOS>ATOM
      1 C          64.2027   88.6317   14.4446 C.3     1  UNL1        0.1217
      2 N          64.4774   89.9268   13.7394 N.am    1  UNL1       -0.2392
      3 C          65.3065   91.0598   14.2676 C.2     1  UNL1        0.3311
      4 O          66.0065   91.0965   15.5937 O.2     1  UNL1       -0.2501
      5 N          65.3127   92.1495   13.2369 N.am    1  UNL1       -0.1635
      6 C          64.4874   91.6901   12.0716 C.2     1  UNL1        0.0849
      7 C          64.1393   92.3451   10.7679 C.3     1  UNL1        0.1402
      8 CL         64.6555   93.7188   10.4573 Cl      1  UNL1       -0.1039
      9 C          63.2749   91.6264    9.7747 C.2     1  UNL1       -0.0089
     10 C          62.7587   90.2528   10.0853 C.2     1  UNL1       -0.0255
     11 C          63.1068   89.5977   11.3891 C.2     1  UNL1        0.0082
     12 C          63.9712   90.3164   12.3822 C.2     1  UNL1        0.0655
     13 C          62.7007   88.2448   11.8938 C.3     1  UNL1        0.1213
     14 N          61.8461   87.2128   11.2194 N.am    1  UNL1       -0.2676
     15 C          61.1867   87.2789    9.8738 C.2     1  UNL1        0.2264
     16 O          60.3895   86.0709    9.4796 O.2     1  UNL1       -0.2748
     17 C          61.2188   88.3932    8.8701 C.3     1  UNL1        0.0901
     18 C          61.9184   89.7166    8.9643 C.3     1  UNL1        0.0354
     19 C          61.6213   85.9475   11.9930 C.3     1  UNL1        0.1976
     20 C          62.7487   84.9775   12.1883 C.3     1  UNL1        0.4157
     21 F          63.8760   84.0074   12.3836 F       1  UNL1       -0.1682
     22 F          63.0984   85.0913   10.7341 F       1  UNL1       -0.1682
     23 F          62.3989   84.8636   13.6425 F       1  UNL1       -0.1682
     24 C          60.4497   88.1521    7.6051 C.3     1  UNL1        0.0947
     25 C          59.4351   89.1549    7.1416 C.2     1  UNL1        0.2261
     26 O          58.0906   89.2224    7.8035 O.2     1  UNL1       -0.2749
     27 N          59.7647   90.0902    6.0162 N.am    1  UNL1       -0.2794
     28 C          58.7501   91.0930    5.5527 C.3     1  UNL1        0.0951
     29 C          59.0797   92.0283    4.4273 C.3     1  UNL1        0.0414
     30 C          60.4241   91.9608    3.7654 C.3     1  UNL1        0.0803
     31 C          61.4387   90.9580    4.2289 C.3     1  UNL1        0.0414
     32 C          61.1091   90.0227    5.3543 C.3     1  UNL1        0.0951
     33 N          60.7537   92.8961    2.6400 N.am    1  UNL1       -0.2651
     34 C          59.5784   93.4871    1.9194 C.3     1  UNL1        0.0996
     35 C          59.5742   94.4447    0.7649 C.3     1  UNL1        0.0491
     36 C          60.7443   95.0478    0.0458 C.ar    1  UNL1       -0.0070
     37 C          60.2982   95.9606   -1.0578 C.ar    1  UNL1       -0.0030
     38 C          61.3154   96.6678   -1.9034 C.ar    1  UNL1       -0.0002
     39 C          62.7787   96.4622   -1.6456 C.ar    1  UNL1        0.0013
     40 C          63.2248   95.5494   -0.5421 C.ar    1  UNL1        0.0144
     41 C          62.2076   94.8423    0.3036 C.ar    1  UNL1        0.0476
     42 N          62.8622   93.9828    1.3442 N.am    1  UNL1       -0.2684
     43 C          62.2152   93.1167    2.3840 C.2     1  UNL1        0.3076
     44 O          63.1537   92.3728    3.2872 O.2     1  UNL1       -0.2522
     45 H          63.8467   93.9879    1.3448 H       1  UNL1        0.1564
@<TRIPOS>BOND
     1     1     2    1
     2     2     3   am
     3     3     4    2
     4     3     5    1
     5     5     6    2
     6     6     7    1
     7     7     8    1
     8     7     9    1
     9     9    10    2
    10    10    11    1
    11    11    12    2
    12    11    13    1
    13    13    14    1
    14    14    19    1
    15    19    20    1
    16    20    21    1
    17    20    22    1
    18    20    23    1
    19    14    15   am
    20    15    16    2
    21    15    17    1
    22    17    24    1
    23    24    25    1
    24    25    26    2
    25    25    27   am
    26    27    28    1
    27    28    29    1
    28    29    30    1
    29    30    33    1
    30    33    34    1
    31    34    35    1
    32    35    36    1
    33    36    37   ar
    34    37    38   ar
    35    38    39   ar
    36    39    40   ar
    37    40    41   ar
    38    41    42    1
    39    42    43   am
    40    43    44    2
    41    30    31    1
    42    31    32    1
    43    17    18    1
    44    12     2    1
    45    32    27    1
    46    12     6    1
    47    43    33   am
    48    18    10    1
    49    41    36   ar
    50    42    45    1
@<TRIPOS>MOLECULE
*****
 45 50 0 0 0
SMALL
GASTEIGER

@<TRIPOS>ATOM
      1 C          63.8614   88.0536   14.1553 C.3     1  UNL1        0.1217
      2 N          63.8051   86.5986   13.7951 N.am    1  UNL1       -0.2392
      3 C          64.3707   85.4679   14.6024 C.2     1  UNL1        0.3311
      4 O          65.0919   85.5938   15.9116 O.2     1  UNL1       -0.2501
      5 N          64.0884   84.1893   13.8707 N.am    1  UNL1       -0.1635
      6 C          63.3484   84.5297   12.6111 C.2     1  UNL1        0.0849
      7 C          62.8114   83.6761   11.5007 C.3     1  UNL1        0.1402
      8 CL         62.9865   82.1871   11.5474 Cl      1  UNL1       -0.1039
      9 C          62.0992   84.3116   10.3436 C.2     1  UNL1       -0.0089
     10 C          61.9241   85.8006   10.2969 C.2     1  UNL1       -0.0255
     11 C          62.4611   86.6542   11.4073 C.2     1  UNL1        0.0082
     12 C          63.1733   86.0187   12.5645 C.2     1  UNL1        0.0655
     13 C          62.3954   88.1453   11.5562 C.3     1  UNL1        0.1213
     14 N          61.7765   89.1512   10.6315 N.am    1  UNL1       -0.2676
     15 C          61.0704   88.9143    9.3295 C.2     1  UNL1        0.2264
     16 O          60.5581   90.1409    8.6344 O.2     1  UNL1       -0.2748
     17 C          60.8088   87.6131    8.6306 C.3     1  UNL1        0.0901
     18 C          61.1887   86.2275    9.0611 C.3     1  UNL1        0.0354
     19 C          61.8769   90.5833   11.0663 C.3     1  UNL1        0.1976
     20 C          63.2159   91.2568   11.1262 C.3     1  UNL1        0.4157
     21 F          64.5549   91.9302   11.1861 F       1  UNL1       -0.1682
     22 F          63.1623   91.4948    9.6462 F       1  UNL1       -0.1682
     23 F          63.2695   91.0188   12.6062 F       1  UNL1       -0.1682
     24 C          60.0695   87.7106    7.3291 C.3     1  UNL1        0.0947
     25 C          59.2267   88.9157    7.0337 C.2     1  UNL1        0.2261
     26 O          57.9553   89.1468    7.7955 O.2     1  UNL1       -0.2749
     27 N          59.6550   89.8898    5.9765 N.am    1  UNL1       -0.2794
     28 C          58.8121   91.0948    5.6811 C.3     1  UNL1        0.0951
     29 C          59.2405   92.0689    4.6239 C.3     1  UNL1        0.0414
     30 C          60.5118   91.8378    3.8620 C.3     1  UNL1        0.0803
     31 C          61.3547   90.6328    4.1574 C.3     1  UNL1        0.0414
     32 C          60.9264   89.6587    5.2146 C.3     1  UNL1        0.0951
     33 N          60.9401   92.8119    2.8048 N.am    1  UNL1       -0.2651
     34 C          59.8430   93.6290    2.1896 C.3     1  UNL1        0.0996
     35 C          59.9437   94.6761    1.1203 C.3     1  UNL1        0.0491
     36 C          61.1666   95.1646    0.4021 C.ar    1  UNL1       -0.0070
     37 C          60.8256   96.2272   -0.6004 C.ar    1  UNL1       -0.0030
     38 C          61.9086   96.8518   -1.4291 C.ar    1  UNL1       -0.0002
     39 C          63.3327   96.4140   -1.2553 C.ar    1  UNL1        0.0013
     40 C          63.6738   95.3515   -0.2529 C.ar    1  UNL1        0.0144
     41 C          62.5907   94.7269    0.5757 C.ar    1  UNL1        0.0476
     42 N          63.1437   93.6924    1.5106 N.am    1  UNL1       -0.2684
     43 C          62.4092   92.8402    2.5026 C.2     1  UNL1        0.3076
     44 O          63.2555   91.8905    3.2976 O.2     1  UNL1       -0.2522
     45 H          64.1176   93.5545    1.4673 H       1  UNL1        0.1564
@<TRIPOS>BOND
     1     1     2    1
     2     2     3   am
     3     3     4    2
     4     3     5    1
     5     5     6    2
     6     6     7    1
     7     7     8    1
     8     7     9    1
     9     9    10    2
    10    10    11    1
    11    11    12    2
    12    11    13    1
    13    13    14    1
    14    14    19    1
    15    19    20    1
    16    20    21    1
    17    20    22    1
    18    20    23    1
    19    14    15   am
    20    15    16    2
    21    15    17    1
    22    17    24    1
    23    24    25    1
    24    25    26    2
    25    25    27   am
    26    27    28    1
    27    28    29    1
    28    29    30    1
    29    30    33    1
    30    33    34    1
    31    34    35    1
    32    35    36    1
    33    36    37   ar
    34    37    38   ar
    35    38    39   ar
    36    39    40   ar
    37    40    41   ar
    38    41    42    1
    39    42    43   am
    40    43    44    2
    41    30    31    1
    42    31    32    1
    43    17    18    1
    44    12     2    1
    45    32    27    1
    46    12     6    1
    47    43    33   am
    48    18    10    1
    49    41    36   ar
    50    42    45    1
@<TRIPOS>MOLECULE
*****
 45 50 0 0 0
SMALL
GASTEIGER

@<TRIPOS>ATOM
      1 C          63.9467   88.3900   14.1061 C.3     1  UNL1        0.1217
      2 N          64.2767   89.7215   13.4994 N.am    1  UNL1       -0.2392
      3 C          65.1431   90.7803   14.1145 C.2     1  UNL1        0.3311
      4 O          65.8315   90.6934   15.4444 O.2     1  UNL1       -0.2501
      5 N          65.2001   91.9412   13.1664 N.am    1  UNL1       -0.1635
      6 C          64.3690   91.6000   11.9652 C.2     1  UNL1        0.0849
      7 C          64.0581   92.3611   10.7106 C.3     1  UNL1        0.1402
      8 CL         64.6288   93.7330   10.5048 Cl      1  UNL1       -0.1039
      9 C          63.1765   91.7504    9.6619 C.2     1  UNL1       -0.0089
     10 C          62.6059   90.3787    9.8677 C.2     1  UNL1       -0.0255
     11 C          62.9167   89.6174   11.1223 C.2     1  UNL1        0.0082
     12 C          63.7983   90.2281   12.1711 C.2     1  UNL1        0.0655
     13 C          62.4550   88.2480   11.5240 C.3     1  UNL1        0.1213
     14 N          61.5684   87.3014   10.7703 N.am    1  UNL1       -0.2676
     15 C          60.9245   87.4906    9.4289 C.2     1  UNL1        0.2264
     16 O          60.0860   86.3460    8.9421 O.2     1  UNL1       -0.2748
     17 C          61.0082   88.6730    8.5096 C.3     1  UNL1        0.0901
     18 C          61.7564   89.9582    8.7050 C.3     1  UNL1        0.0354
     19 C          61.2886   85.9927   11.4478 C.3     1  UNL1        0.1976
     20 C          62.4021   85.0142   11.6779 C.3     1  UNL1        0.4157
     21 F          63.5155   84.0357   11.9080 F       1  UNL1       -0.1682
     22 F          62.7698   85.0912   10.2257 F       1  UNL1       -0.1682
     23 F          62.0343   84.9372   13.1301 F       1  UNL1       -0.1682
     24 C          60.2424   88.5545    7.2254 C.3     1  UNL1        0.0947
     25 C          59.4846   89.7341    6.6924 C.2     1  UNL1        0.2261
     26 O          58.1503   90.0942    7.2757 O.2     1  UNL1       -0.2749
     27 N          60.0608   90.5538    5.5761 N.am    1  UNL1       -0.2794
     28 C          59.3030   91.7334    5.0432 C.3     1  UNL1        0.0951
     29 C          59.8793   92.5531    3.9269 C.3     1  UNL1        0.0414
     30 C          61.2136   92.1930    3.3436 C.3     1  UNL1        0.0803
     31 C          61.9714   91.0133    3.8766 C.3     1  UNL1        0.0414
     32 C          61.3951   90.1937    4.9928 C.3     1  UNL1        0.0951
     33 N          61.7899   93.0126    2.2274 N.am    1  UNL1       -0.2651
     34 C          63.2464   93.3489    2.3515 C.3     1  UNL1        0.0996
     35 C          64.1061   94.1432    1.4135 C.3     1  UNL1        0.0491
     36 C          63.7217   94.7974    0.1196 C.ar    1  UNL1       -0.0070
     37 C          64.8903   95.4966   -0.5094 C.ar    1  UNL1       -0.0030
     38 C          64.7197   96.2171   -1.8139 C.ar    1  UNL1       -0.0002
     39 C          63.3806   96.2387   -2.4893 C.ar    1  UNL1        0.0013
     40 C          62.2120   95.5396   -1.8603 C.ar    1  UNL1        0.0144
     41 C          62.3826   94.8190   -0.5558 C.ar    1  UNL1        0.0476
     42 N          61.0971   94.1916   -0.1042 N.am    1  UNL1       -0.2684
     43 C          60.8334   93.3877    1.1344 C.2     1  UNL1        0.3076
     44 O          59.4271   92.8935    1.3023 O.2     1  UNL1       -0.2522
     45 H          60.3244   94.3251   -0.6994 H       1  UNL1        0.1564
@<TRIPOS>BOND
     1     1     2    1
     2     2     3   am
     3     3     4    2
     4     3     5    1
     5     5     6    2
     6     6     7    1
     7     7     8    1
     8     7     9    1
     9     9    10    2
    10    10    11    1
    11    11    12    2
    12    11    13    1
    13    13    14    1
    14    14    19    1
    15    19    20    1
    16    20    21    1
    17    20    22    1
    18    20    23    1
    19    14    15   am
    20    15    16    2
    21    15    17    1
    22    17    24    1
    23    24    25    1
    24    25    26    2
    25    25    27   am
    26    27    28    1
    27    28    29    1
    28    29    30    1
    29    30    33    1
    30    33    34    1
    31    34    35    1
    32    35    36    1
    33    36    37   ar
    34    37    38   ar
    35    38    39   ar
    36    39    40   ar
    37    40    41   ar
    38    41    42    1
    39    42    43   am
    40    43    44    2
    41    30    31    1
    42    31    32    1
    43    17    18    1
    44    12     2    1
    45    32    27    1
    46    12     6    1
    47    43    33   am
    48    18    10    1
    49    41    36   ar
    50    42    45    1
@<TRIPOS>MOLECULE
*****
 45 50 0 0 0
SMALL
GASTEIGER

@<TRIPOS>ATOM
      1 C          60.7175   94.9433   -4.1289 C.3     1  UNL1        0.1217
      2 N          59.4636   94.1241   -4.0480 N.am    1  UNL1       -0.2392
      3 C          58.5813   93.7464   -5.2008 C.2     1  UNL1        0.3311
      4 O          58.7980   94.1216   -6.6369 O.2     1  UNL1       -0.2501
      5 N          57.4442   92.9276   -4.6655 N.am    1  UNL1       -0.1635
      6 C          57.6237   92.7992   -3.1818 C.2     1  UNL1        0.0849
      7 C          56.8120   92.1046   -2.1289 C.3     1  UNL1        0.1402
      8 CL         55.5639   91.3651   -2.5105 Cl      1  UNL1       -0.1039
      9 C          57.2483   92.1494   -0.6945 C.2     1  UNL1       -0.0089
     10 C          58.4963   92.8887   -0.3129 C.2     1  UNL1       -0.0255
     11 C          59.3081   93.5835   -1.3658 C.2     1  UNL1        0.0082
     12 C          58.8717   93.5387   -2.8002 C.2     1  UNL1        0.0655
     13 C          60.5745   94.3705   -1.2024 C.3     1  UNL1        0.1213
     14 N          61.3419   94.6574    0.0541 N.am    1  UNL1       -0.2676
     15 C          61.0324   94.2279    1.4575 C.2     1  UNL1        0.2264
     16 O          62.0049   94.6807    2.5061 O.2     1  UNL1       -0.2748
     17 C          59.8792   93.4056    1.9512 C.3     1  UNL1        0.0901
     18 C          58.7505   92.8096    1.1633 C.3     1  UNL1        0.0354
     19 C          62.5829   95.4828   -0.1154 C.3     1  UNL1        0.1976
     20 C          63.5946   95.1106   -1.1585 C.3     1  UNL1        0.4157
     21 F          64.6063   94.7385   -2.2016 F       1  UNL1       -0.1682
     22 F          63.9725   93.8988   -0.3594 F       1  UNL1       -0.1682
     23 F          63.2166   96.3225   -1.9575 F       1  UNL1       -0.1682
     24 C          59.8508   93.1448    3.4281 C.3     1  UNL1        0.0947
     25 C          58.8757   92.1571    3.9967 C.2     1  UNL1        0.2261
     26 O          57.4503   92.1562    3.5292 O.2     1  UNL1       -0.2749
     27 N          59.3256   91.1702    5.0328 N.am    1  UNL1       -0.2794
     28 C          58.3504   90.1825    5.6014 C.3     1  UNL1        0.0951
     29 C          58.8003   89.1956    6.6376 C.3     1  UNL1        0.0414
     30 C          60.2257   89.1965    7.1051 C.3     1  UNL1        0.0803
     31 C          61.2009   90.1842    6.5365 C.3     1  UNL1        0.0414
     32 C          60.7509   91.1711    5.5004 C.3     1  UNL1        0.0951
     33 N          60.6756   88.2096    8.1412 N.am    1  UNL1       -0.2651
     34 C          61.1102   86.8717    7.6206 C.3     1  UNL1        0.0996
     35 C          61.6079   85.6850    8.3911 C.3     1  UNL1        0.0491
     36 C          61.7941   85.5430    9.8727 C.ar    1  UNL1       -0.0070
     37 C          62.3166   84.1834   10.2317 C.ar    1  UNL1       -0.0030
     38 C          62.5734   83.8337   11.6675 C.ar    1  UNL1       -0.0002
     39 C          62.3077   84.8434   12.7444 C.ar    1  UNL1        0.0013
     40 C          61.7853   86.2029   12.3856 C.ar    1  UNL1        0.0144
     41 C          61.5284   86.5526   10.9497 C.ar    1  UNL1        0.0476
     42 N          61.0110   87.9537   10.8111 N.am    1  UNL1       -0.2684
     43 C          60.6315   88.6911    9.5612 C.2     1  UNL1        0.3076
     44 O          60.1433   90.0959    9.7572 O.2     1  UNL1       -0.2522
     45 H          60.9068   88.4557   11.6515 H       1  UNL1        0.1564
@<TRIPOS>BOND
     1     1     2    1
     2     2     3   am
     3     3     4    2
     4     3     5    1
     5     5     6    2
     6     6     7    1
     7     7     8    1
     8     7     9    1
     9     9    10    2
    10    10    11    1
    11    11    12    2
    12    11    13    1
    13    13    14    1
    14    14    19    1
    15    19    20    1
    16    20    21    1
    17    20    22    1
    18    20    23    1
    19    14    15   am
    20    15    16    2
    21    15    17    1
    22    17    24    1
    23    24    25    1
    24    25    26    2
    25    25    27   am
    26    27    28    1
    27    28    29    1
    28    29    30    1
    29    30    33    1
    30    33    34    1
    31    34    35    1
    32    35    36    1
    33    36    37   ar
    34    37    38   ar
    35    38    39   ar
    36    39    40   ar
    37    40    41   ar
    38    41    42    1
    39    42    43   am
    40    43    44    2
    41    30    31    1
    42    31    32    1
    43    17    18    1
    44    12     2    1
    45    32    27    1
    46    12     6    1
    47    43    33   am
    48    18    10    1
    49    41    36   ar
    50    42    45    1
