@<TRIPOS>MOLECULE
*****
 41 46 0 0 0
SMALL
GASTEIGER

@<TRIPOS>ATOM
      1 C          59.7662   89.9245    6.3914 C.2     1  UNL1        0.2495
      2 O          58.3523   90.1146    5.9281 O.2     1  UNL1       -0.2698
      3 N          60.8909   90.6008    5.6650 N.am    1  UNL1       -0.2804
      4 H          61.8189   90.4760    5.9691 H       1  UNL1        0.1552
      5 C          60.9234   86.4587   11.1505 C.3     1  UNL1        0.0317
      6 C          60.6341   87.3252    9.9608 C.ar    1  UNL1       -0.0142
      7 C          59.8459   86.7775    8.8080 C.ar    1  UNL1       -0.0035
      8 C          59.5566   87.6439    7.6183 C.ar    1  UNL1        0.0042
      9 C          60.0555   89.0581    7.5812 C.ar    1  UNL1        0.0543
     10 C          60.8438   89.6057    8.7339 C.ar    1  UNL1        0.0124
     11 C          61.1330   88.7392    9.9237 C.ar    1  UNL1        0.0382
     12 C          61.9213   89.2869   11.0765 C.1     1  UNL1       -0.0585
     13 C          62.7095   89.8346   12.2292 C.1     1  UNL1       -0.0388
     14 C          63.4977   90.3822   13.3819 C.ar    1  UNL1        0.1451
     15 C          63.3682   89.9638   14.8166 C.ar    1  UNL1        0.1281
     16 N          64.3443   90.7674   15.6237 N.ar    1  UNL1       -0.2228
     17 C          65.0770   91.6825   14.6879 C.ar    1  UNL1        0.1646
     18 C          66.1531   92.7018   14.9184 C.ar    1  UNL1        0.0405
     19 C          66.7059   93.4830   13.7634 C.ar    1  UNL1        0.0256
     20 C          66.1827   93.2449   12.3779 C.ar    1  UNL1        0.1207
     21 N          65.1066   92.2256   12.1474 N.ar    1  UNL1       -0.1616
     22 N          64.5538   91.4444   13.3024 N.ar    1  UNL1       -0.2030
     23 C          60.6016   91.4672    4.4751 C.ar    1  UNL1        0.0514
     24 C          59.2272   92.0342    4.2766 C.ar    1  UNL1        0.0145
     25 C          58.9379   92.9007    3.0868 C.ar    1  UNL1       -0.0008
     26 C          60.0232   93.2001    2.0955 C.ar    1  UNL1        0.0046
     27 C          61.3976   92.6331    2.2941 C.ar    1  UNL1        0.0562
     28 CL         62.4829   92.9325    1.3028 Cl      1  UNL1       -0.0825
     29 C          61.6868   91.7667    3.4839 C.ar    1  UNL1        0.0258
     30 C          59.7340   94.0666    0.9057 C.3     1  UNL1        0.1005
     31 N          58.9990   93.5008   -0.2732 N.3     1  UNL1       -0.2613
     32 C          57.6328   92.8821   -0.2464 C.3     1  UNL1        0.0994
     33 C          57.2907   92.4533   -1.6425 C.ar    1  UNL1       -0.0086
     34 C          56.0769   91.7866   -2.2186 C.ar    1  UNL1       -0.0001
     35 C          56.0178   91.4735   -3.6844 C.ar    1  UNL1        0.0363
     36 C          57.1725   91.8272   -4.5740 C.ar    1  UNL1        0.1334
     37 O          57.1134   91.5141   -6.0398 O.3     1  UNL1       -0.5055
     38 C          58.3864   92.4940   -3.9979 C.ar    1  UNL1        0.0334
     39 C          58.4454   92.8071   -2.5321 C.ar    1  UNL1       -0.0058
     40 C          59.5012   93.4544   -1.6858 C.3     1  UNL1        0.0995
     41 H          56.3552   91.0975   -6.3997 H       1  UNL1        0.2922
@<TRIPOS>BOND
     1     5     6    1
     2     6     7   ar
     3     7     8   ar
     4     8     9   ar
     5     9     1    1
     6     1     2    2
     7     1     3   am
     8     3    23    1
     9    23    24   ar
    10    24    25   ar
    11    25    26   ar
    12    26    30    1
    13    30    31    1
    14    31    32    1
    15    32    33    1
    16    33    34   ar
    17    34    35   ar
    18    35    36   ar
    19    36    37    1
    20    36    38   ar
    21    38    39   ar
    22    39    40    1
    23    26    27   ar
    24    27    28    1
    25    27    29   ar
    26     9    10   ar
    27    10    11   ar
    28    11    12    1
    29    12    13    3
    30    13    14    1
    31    14    15   ar
    32    15    16   ar
    33    16    17   ar
    34    17    18   ar
    35    18    19   ar
    36    19    20   ar
    37    20    21   ar
    38    21    22   ar
    39    11     6   ar
    40    22    14   ar
    41    29    23   ar
    42    22    17   ar
    43    40    31    1
    44    39    33   ar
    45     3     4    1
    46    37    41    1
@<TRIPOS>MOLECULE
*****
 41 46 0 0 0
SMALL
GASTEIGER

@<TRIPOS>ATOM
      1 C          60.1669   89.1578    7.5119 C.2     1  UNL1        0.2495
      2 O          59.6867   87.7406    7.6169 O.2     1  UNL1       -0.2698
      3 N          61.1335   89.6990    8.5231 N.am    1  UNL1       -0.2804
      4 H          61.4486   90.6292    8.4542 H       1  UNL1        0.1552
      5 C          58.2213   92.6614    3.0466 C.3     1  UNL1        0.0317
      6 C          58.7077   91.7855    4.1629 C.ar    1  UNL1       -0.0142
      7 C          57.7276   91.1860    5.1273 C.ar    1  UNL1       -0.0035
      8 C          58.2140   90.3101    6.2436 C.ar    1  UNL1        0.0042
      9 C          59.6805   90.0337    6.3956 C.ar    1  UNL1        0.0543
     10 C          60.6606   90.6332    5.4312 C.ar    1  UNL1        0.0124
     11 C          60.1741   91.5092    4.3148 C.ar    1  UNL1        0.0382
     12 C          61.1542   92.1087    3.3504 C.1     1  UNL1       -0.0585
     13 C          62.1342   92.7082    2.3861 C.1     1  UNL1       -0.0388
     14 C          63.1143   93.3078    1.4217 C.ar    1  UNL1        0.1451
     15 C          64.4927   93.7967    1.7550 C.ar    1  UNL1        0.1281
     16 N          65.1183   94.3148    0.4940 N.ar    1  UNL1       -0.2228
     17 C          64.1266   94.1460   -0.6187 C.ar    1  UNL1        0.1646
     18 C          64.1914   94.4786   -2.0800 C.ar    1  UNL1        0.0405
     19 C          63.0176   94.1889   -2.9678 C.ar    1  UNL1        0.0256
     20 C          61.7791   93.5665   -2.3944 C.ar    1  UNL1        0.1207
     21 N          61.7143   93.2339   -0.9332 N.ar    1  UNL1       -0.1616
     22 N          62.8881   93.5237   -0.0454 N.ar    1  UNL1       -0.2030
     23 C          61.6199   88.8231    9.6395 C.ar    1  UNL1        0.0514
     24 C          61.3151   87.3545    9.6278 C.ar    1  UNL1        0.0145
     25 C          61.8015   86.4786   10.7442 C.ar    1  UNL1       -0.0008
     26 C          62.5928   87.0714   11.8722 C.ar    1  UNL1        0.0046
     27 C          62.8976   88.5401   11.8839 C.ar    1  UNL1        0.0562
     28 CL         63.6889   89.1329   13.0119 Cl      1  UNL1       -0.0825
     29 C          62.4112   89.4159   10.7676 C.ar    1  UNL1        0.0258
     30 C          63.0792   86.1955   12.9886 C.3     1  UNL1        0.1005
     31 N          62.9218   84.7066   12.8968 N.3     1  UNL1       -0.2613
     32 C          62.4303   83.8031   13.9886 C.3     1  UNL1        0.0994
     33 C          62.4329   82.3979   13.4637 C.ar    1  UNL1       -0.0086
     34 C          62.0500   81.0909   14.0923 C.ar    1  UNL1       -0.0001
     35 C          62.1602   79.8191   13.3048 C.ar    1  UNL1        0.0363
     36 C          62.6534   79.8542   11.8886 C.ar    1  UNL1        0.1334
     37 O          62.7636   78.5823   11.1010 O.3     1  UNL1       -0.5055
     38 C          63.0363   81.1612   11.2600 C.ar    1  UNL1        0.0334
     39 C          62.9261   82.4330   12.0475 C.ar    1  UNL1       -0.0058
     40 C          63.2282   83.8599   11.6972 C.3     1  UNL1        0.0995
     41 H          62.5244   77.7659   11.4937 H       1  UNL1        0.2922
@<TRIPOS>BOND
     1     5     6    1
     2     6     7   ar
     3     7     8   ar
     4     8     9   ar
     5     9     1    1
     6     1     2    2
     7     1     3   am
     8     3    23    1
     9    23    24   ar
    10    24    25   ar
    11    25    26   ar
    12    26    30    1
    13    30    31    1
    14    31    32    1
    15    32    33    1
    16    33    34   ar
    17    34    35   ar
    18    35    36   ar
    19    36    37    1
    20    36    38   ar
    21    38    39   ar
    22    39    40    1
    23    26    27   ar
    24    27    28    1
    25    27    29   ar
    26     9    10   ar
    27    10    11   ar
    28    11    12    1
    29    12    13    3
    30    13    14    1
    31    14    15   ar
    32    15    16   ar
    33    16    17   ar
    34    17    18   ar
    35    18    19   ar
    36    19    20   ar
    37    20    21   ar
    38    21    22   ar
    39    11     6   ar
    40    22    14   ar
    41    29    23   ar
    42    22    17   ar
    43    40    31    1
    44    39    33   ar
    45     3     4    1
    46    37    41    1
@<TRIPOS>MOLECULE
*****
 41 46 0 0 0
SMALL
GASTEIGER

@<TRIPOS>ATOM
      1 C          59.8699   90.8591    5.3602 C.2     1  UNL1        0.2495
      2 O          58.5842   91.4829    4.9044 O.2     1  UNL1       -0.2698
      3 N          61.1431   91.1371    4.6174 N.am    1  UNL1       -0.2804
      4 H          61.9869   90.7277    4.9165 H       1  UNL1        0.1552
      5 C          59.9204   87.2519   10.1544 C.3     1  UNL1        0.0317
      6 C          59.9078   88.1536    8.9559 C.ar    1  UNL1       -0.0142
      7 C          59.0506   87.8159    7.7722 C.ar    1  UNL1       -0.0035
      8 C          59.0380   88.7177    6.5736 C.ar    1  UNL1        0.0042
      9 C          59.8826   89.9573    6.5587 C.ar    1  UNL1        0.0543
     10 C          60.7397   90.2950    7.7425 C.ar    1  UNL1        0.0124
     11 C          60.7523   89.3932    8.9411 C.ar    1  UNL1        0.0382
     12 C          61.6095   89.7309   10.1248 C.1     1  UNL1       -0.0585
     13 C          62.4667   90.0686   11.3085 C.1     1  UNL1       -0.0388
     14 C          63.3239   90.4064   12.4922 C.ar    1  UNL1        0.1451
     15 C          63.2584   89.7561   13.8424 C.ar    1  UNL1        0.1281
     16 N          64.2911   90.4015   14.7182 N.ar    1  UNL1       -0.2228
     17 C          64.9948   91.4506   13.9093 C.ar    1  UNL1        0.1646
     18 C          66.1026   92.4036   14.2478 C.ar    1  UNL1        0.0405
     19 C          66.6126   93.3596   13.2105 C.ar    1  UNL1        0.0256
     20 C          66.0148   93.3625   11.8347 C.ar    1  UNL1        0.1207
     21 N          64.9070   92.4096   11.4963 N.ar    1  UNL1       -0.1616
     22 N          64.3970   91.4536   12.5336 N.ar    1  UNL1       -0.2030
     23 C          61.1305   92.0389    3.4188 C.ar    1  UNL1        0.0514
     24 C          62.4063   92.6629    2.9362 C.ar    1  UNL1        0.0145
     25 C          62.3937   93.5647    1.7376 C.ar    1  UNL1       -0.0008
     26 C          61.1053   93.8425    1.0216 C.ar    1  UNL1        0.0046
     27 C          59.8294   93.2185    1.5042 C.ar    1  UNL1        0.0562
     28 CL         58.5410   93.4963    0.7882 Cl      1  UNL1       -0.0825
     29 C          59.8420   92.3168    2.7027 C.ar    1  UNL1        0.0258
     30 C          61.0927   94.7443   -0.1770 C.3     1  UNL1        0.1005
     31 N          62.0337   94.4898   -1.3170 N.3     1  UNL1       -0.2613
     32 C          62.8102   95.5301   -2.0684 C.3     1  UNL1        0.0994
     33 C          63.6199   94.8335   -3.1216 C.ar    1  UNL1       -0.0086
     34 C          64.5729   95.3486   -4.1591 C.ar    1  UNL1       -0.0001
     35 C          65.2497   94.3927   -5.0962 C.ar    1  UNL1        0.0363
     36 C          64.9735   92.9218   -4.9957 C.ar    1  UNL1        0.1334
     37 O          65.6504   91.9658   -5.9329 O.3     1  UNL1       -0.5055
     38 C          64.0205   92.4067   -3.9582 C.ar    1  UNL1        0.0334
     39 C          63.3437   93.3626   -3.0212 C.ar    1  UNL1       -0.0058
     40 C          62.3634   93.1502   -1.9059 C.3     1  UNL1        0.0995
     41 H          66.2457   92.2876   -6.5810 H       1  UNL1        0.2922
@<TRIPOS>BOND
     1     5     6    1
     2     6     7   ar
     3     7     8   ar
     4     8     9   ar
     5     9     1    1
     6     1     2    2
     7     1     3   am
     8     3    23    1
     9    23    24   ar
    10    24    25   ar
    11    25    26   ar
    12    26    30    1
    13    30    31    1
    14    31    32    1
    15    32    33    1
    16    33    34   ar
    17    34    35   ar
    18    35    36   ar
    19    36    37    1
    20    36    38   ar
    21    38    39   ar
    22    39    40    1
    23    26    27   ar
    24    27    28    1
    25    27    29   ar
    26     9    10   ar
    27    10    11   ar
    28    11    12    1
    29    12    13    3
    30    13    14    1
    31    14    15   ar
    32    15    16   ar
    33    16    17   ar
    34    17    18   ar
    35    18    19   ar
    36    19    20   ar
    37    20    21   ar
    38    21    22   ar
    39    11     6   ar
    40    22    14   ar
    41    29    23   ar
    42    22    17   ar
    43    40    31    1
    44    39    33   ar
    45     3     4    1
    46    37    41    1
