@<TRIPOS>MOLECULE
*****
 17 18 0 0 0
SMALL
GASTEIGER

@<TRIPOS>ATOM
      1 C          65.1575   92.3115   11.6790 C.2     1  UNL1        0.0435
      2 C          64.2039   91.4443   12.4462 C.2     1  UNL1        0.0033
      3 C          63.3651   90.4313   11.7249 C.ar    1  UNL1        0.0001
      4 C          62.6266   90.8197   10.4784 C.ar    1  UNL1        0.0005
      5 C          61.7878   89.8067    9.7572 C.ar    1  UNL1        0.0067
      6 C          61.6875   88.4053   10.2825 C.ar    1  UNL1        0.0346
      7 BR         60.8486   87.3922    9.5612 Br      1  UNL1       -0.0490
      8 C          62.4260   88.0168   11.5289 C.ar    1  UNL1        0.0067
      9 C          63.2648   89.0298   12.2501 C.ar    1  UNL1        0.0005
     10 O          66.1675   94.7006   11.8283 O.2     1  UNL1       -0.2850
     11 C          65.9963   93.3245   12.4003 C.2     1  UNL1        0.2111
     12 C          66.6639   92.9615   13.6935 C.ar    1  UNL1        0.0961
     13 C          67.6998   91.8930   13.8814 C.ar    1  UNL1        0.0218
     14 C          68.0889   91.8744   15.3299 C.ar    1  UNL1        0.0200
     15 C          67.2935   92.9313   16.0373 C.ar    1  UNL1        0.0725
     16 N          66.4128   93.6032   15.0259 N.ar    1  UNL1       -0.3495
     17 H          65.7810   94.3366   15.2051 H       1  UNL1        0.1661
@<TRIPOS>BOND
     1    10    11    2
     2    11     1    1
     3     1     2    2
     4     2     3    1
     5     3     4   ar
     6     4     5   ar
     7     5     6   ar
     8     6     7    1
     9     6     8   ar
    10     8     9   ar
    11    11    12    1
    12    12    13   ar
    13    13    14   ar
    14    14    15   ar
    15    15    16   ar
    16     9     3   ar
    17    16    12   ar
    18    16    17    1
@<TRIPOS>MOLECULE
*****
 17 18 0 0 0
SMALL
GASTEIGER

@<TRIPOS>ATOM
      1 C          63.9239   90.4203   14.5423 C.2     1  UNL1        0.0435
      2 C          63.5745   90.8482   13.1478 C.2     1  UNL1        0.0033
      3 C          63.0681   89.8404   12.1587 C.ar    1  UNL1        0.0001
      4 C          62.4621   90.2981   10.8652 C.ar    1  UNL1        0.0005
      5 C          61.9556   89.2905    9.8763 C.ar    1  UNL1        0.0067
      6 C          62.0552   87.8251   10.1809 C.ar    1  UNL1        0.0346
      7 BR         61.5488   86.8174    9.1918 Br      1  UNL1       -0.0490
      8 C          62.6612   87.3674   11.4744 C.ar    1  UNL1        0.0067
      9 C          63.1676   88.3751   12.4633 C.ar    1  UNL1        0.0005
     10 O          63.5340   91.9159   16.6307 O.2     1  UNL1       -0.2850
     11 C          64.4303   91.4280   15.5314 C.2     1  UNL1        0.2111
     12 C          65.8330   91.9478   15.4210 C.ar    1  UNL1        0.0961
     13 C          66.8422   91.5488   14.3854 C.ar    1  UNL1        0.0218
     14 C          68.1057   92.3122   14.6512 C.ar    1  UNL1        0.0200
     15 C          67.8775   93.1830   15.8511 C.ar    1  UNL1        0.0725
     16 N          66.4729   92.9578   16.3268 N.ar    1  UNL1       -0.3495
     17 H          66.0459   93.3959   17.0982 H       1  UNL1        0.1661
@<TRIPOS>BOND
     1    10    11    2
     2    11     1    1
     3     1     2    2
     4     2     3    1
     5     3     4   ar
     6     4     5   ar
     7     5     6   ar
     8     6     7    1
     9     6     8   ar
    10     8     9   ar
    11    11    12    1
    12    12    13   ar
    13    13    14   ar
    14    14    15   ar
    15    15    16   ar
    16     9     3   ar
    17    16    12   ar
    18    16    17    1
@<TRIPOS>MOLECULE
*****
 17 18 0 0 0
SMALL
GASTEIGER

@<TRIPOS>ATOM
      1 C          62.8376   84.3340   10.2568 C.2     1  UNL1        0.0435
      2 C          62.2920   85.6312   10.7761 C.2     1  UNL1        0.0033
      3 C          61.5171   86.5370    9.8655 C.ar    1  UNL1        0.0001
      4 C          60.7253   85.9600    8.7297 C.ar    1  UNL1        0.0005
      5 C          59.9505   86.8659    7.8193 C.ar    1  UNL1        0.0067
      6 C          59.9673   88.3488    8.0447 C.ar    1  UNL1        0.0346
      7 BR         59.1924   89.2546    7.1341 Br      1  UNL1       -0.0490
      8 C          60.7591   88.9258    9.1805 C.ar    1  UNL1        0.0067
      9 C          61.5339   88.0199   10.0909 C.ar    1  UNL1        0.0005
     10 O          64.9647   82.9274   10.7539 O.2     1  UNL1       -0.2850
     11 C          63.6125   83.4282   11.1673 C.2     1  UNL1        0.2111
     12 C          63.0353   83.0231   12.4912 C.ar    1  UNL1        0.0961
     13 C          62.2763   81.7604   12.7728 C.ar    1  UNL1        0.0218
     14 C          61.8876   81.7665   14.2216 C.ar    1  UNL1        0.0200
     15 C          62.4065   83.0331   14.8354 C.ar    1  UNL1        0.0725
     16 N          63.1158   83.8097   13.7659 N.ar    1  UNL1       -0.3495
     17 H          63.5568   84.6824   13.8805 H       1  UNL1        0.1661
@<TRIPOS>BOND
     1    10    11    2
     2    11     1    1
     3     1     2    2
     4     2     3    1
     5     3     4   ar
     6     4     5   ar
     7     5     6   ar
     8     6     7    1
     9     6     8   ar
    10     8     9   ar
    11    11    12    1
    12    12    13   ar
    13    13    14   ar
    14    14    15   ar
    15    15    16   ar
    16     9     3   ar
    17    16    12   ar
    18    16    17    1
@<TRIPOS>MOLECULE
*****
 17 18 0 0 0
SMALL
GASTEIGER

@<TRIPOS>ATOM
      1 C          63.5283   91.2563   10.7867 C.2     1  UNL1        0.0435
      2 C          63.0713   89.8984   11.2307 C.2     1  UNL1        0.0033
      3 C          62.1098   89.1170   10.3851 C.ar    1  UNL1        0.0001
      4 C          61.0465   89.8307    9.6042 C.ar    1  UNL1        0.0005
      5 C          60.0850   89.0493    8.7587 C.ar    1  UNL1        0.0067
      6 C          60.1869   87.5542    8.6941 C.ar    1  UNL1        0.0346
      7 BR         59.2253   86.7728    7.8485 Br      1  UNL1       -0.0490
      8 C          61.2502   86.8405    9.4751 C.ar    1  UNL1        0.0067
      9 C          62.2116   87.6219   10.3206 C.ar    1  UNL1        0.0005
     10 O          64.4338   91.9287   13.1272 O.2     1  UNL1       -0.2850
     11 C          64.4899   92.0377   11.6322 C.2     1  UNL1        0.2111
     12 C          65.5074   92.9281   10.9828 C.ar    1  UNL1        0.0961
     13 C          66.7599   92.4776   10.2913 C.ar    1  UNL1        0.0218
     14 C          67.4777   93.6964    9.7920 C.ar    1  UNL1        0.0200
     15 C          66.6688   94.9002   10.1750 C.ar    1  UNL1        0.0725
     16 N          65.4511   94.4254   10.9110 N.ar    1  UNL1       -0.3495
     17 H          64.7398   94.9962   11.2818 H       1  UNL1        0.1661
@<TRIPOS>BOND
     1    10    11    2
     2    11     1    1
     3     1     2    2
     4     2     3    1
     5     3     4   ar
     6     4     5   ar
     7     5     6   ar
     8     6     7    1
     9     6     8   ar
    10     8     9   ar
    11    11    12    1
    12    12    13   ar
    13    13    14   ar
    14    14    15   ar
    15    15    16   ar
    16     9     3   ar
    17    16    12   ar
    18    16    17    1
@<TRIPOS>MOLECULE
*****
 17 18 0 0 0
SMALL
GASTEIGER

@<TRIPOS>ATOM
      1 C          62.4078   84.7711   11.4157 C.2     1  UNL1        0.0435
      2 C          62.1534   86.2470   11.4969 C.2     1  UNL1        0.0033
      3 C          61.4380   86.9474   10.3797 C.ar    1  UNL1        0.0001
      4 C          61.3419   88.4442   10.3725 C.ar    1  UNL1        0.0005
      5 C          60.6266   89.1444    9.2554 C.ar    1  UNL1        0.0067
      6 C          60.0074   88.3478    8.1455 C.ar    1  UNL1        0.0346
      7 BR         59.2921   89.0481    7.0283 Br      1  UNL1       -0.0490
      8 C          60.1036   86.8509    8.1526 C.ar    1  UNL1        0.0067
      9 C          60.8189   86.1507    9.2697 C.ar    1  UNL1        0.0005
     10 O          64.2341   84.7648   13.2636 O.2     1  UNL1       -0.2850
     11 C          63.1232   84.0707   12.5329 C.2     1  UNL1        0.2111
     12 C          62.7275   82.6764   12.9192 C.ar    1  UNL1        0.0961
     13 C          63.0191   81.4290   12.1389 C.ar    1  UNL1        0.0218
     14 C          62.4427   80.2663   12.8911 C.ar    1  UNL1        0.0200
     15 C          61.7947   80.7951   14.1363 C.ar    1  UNL1        0.0725
     16 N          61.9708   82.2847   14.1537 N.ar    1  UNL1       -0.3495
     17 H          61.6466   82.8976   14.8526 H       1  UNL1        0.1661
@<TRIPOS>BOND
     1    10    11    2
     2    11     1    1
     3     1     2    2
     4     2     3    1
     5     3     4   ar
     6     4     5   ar
     7     5     6   ar
     8     6     7    1
     9     6     8   ar
    10     8     9   ar
    11    11    12    1
    12    12    13   ar
    13    13    14   ar
    14    14    15   ar
    15    15    16   ar
    16     9     3   ar
    17    16    12   ar
    18    16    17    1
@<TRIPOS>MOLECULE
*****
 17 18 0 0 0
SMALL
GASTEIGER

@<TRIPOS>ATOM
      1 C          62.7492   90.1607   12.7249 C.2     1  UNL1        0.0435
      2 C          63.0502   88.8362   12.0886 C.2     1  UNL1        0.0033
      3 C          62.1507   88.2977   11.0157 C.ar    1  UNL1        0.0001
      4 C          61.4172   89.2408   10.1088 C.ar    1  UNL1        0.0005
      5 C          60.5178   88.7024    9.0360 C.ar    1  UNL1        0.0067
      6 C          60.3518   87.2209    8.8700 C.ar    1  UNL1        0.0346
      7 BR         59.4522   86.6825    7.7971 Br      1  UNL1       -0.0490
      8 C          61.0852   86.2778    9.7770 C.ar    1  UNL1        0.0067
      9 C          61.9847   86.8162   10.8498 C.ar    1  UNL1        0.0005
     10 O          63.2616   90.5606   15.2404 O.2     1  UNL1       -0.2850
     11 C          63.6487   90.6991   13.7978 C.2     1  UNL1        0.2111
     12 C          64.9352   91.3760   13.4281 C.ar    1  UNL1        0.0961
     13 C          66.2056   91.3505   14.2253 C.ar    1  UNL1        0.0218
     14 C          67.2327   92.1559   13.4862 C.ar    1  UNL1        0.0200
     15 C          66.5972   92.6791   12.2323 C.ar    1  UNL1        0.0725
     16 N          65.1772   92.1971   12.1964 N.ar    1  UNL1       -0.3495
     17 H          64.5196   92.3864   11.4887 H       1  UNL1        0.1661
@<TRIPOS>BOND
     1    10    11    2
     2    11     1    1
     3     1     2    2
     4     2     3    1
     5     3     4   ar
     6     4     5   ar
     7     5     6   ar
     8     6     7    1
     9     6     8   ar
    10     8     9   ar
    11    11    12    1
    12    12    13   ar
    13    13    14   ar
    14    14    15   ar
    15    15    16   ar
    16     9     3   ar
    17    16    12   ar
    18    16    17    1
@<TRIPOS>MOLECULE
*****
 17 18 0 0 0
SMALL
GASTEIGER

@<TRIPOS>ATOM
      1 C          62.2467   88.3598   10.6015 C.2     1  UNL1        0.0435
      2 C          62.1969   89.8579   10.5472 C.2     1  UNL1        0.0033
      3 C          63.2678   90.6687   11.2149 C.ar    1  UNL1        0.0001
      4 C          63.5869   90.4423   12.6629 C.ar    1  UNL1        0.0005
      5 C          64.6578   91.2530   13.3306 C.ar    1  UNL1        0.0067
      6 C          65.4096   92.2903   12.5502 C.ar    1  UNL1        0.0346
      7 BR         66.4805   93.1011   13.2179 Br      1  UNL1       -0.0490
      8 C          65.0904   92.5168   11.1022 C.ar    1  UNL1        0.0067
      9 C          64.0196   91.7060   10.4345 C.ar    1  UNL1        0.0005
     10 O          59.7387   87.7441   10.3169 O.2     1  UNL1       -0.2850
     11 C          61.1758   87.5490    9.9338 C.2     1  UNL1        0.2111
     12 C          61.5419   86.5431    8.8831 C.ar    1  UNL1        0.0961
     13 C          62.8619   85.8423    8.7554 C.ar    1  UNL1        0.0218
     14 C          62.7882   84.9275    7.5689 C.ar    1  UNL1        0.0200
     15 C          61.4226   85.0630    6.9632 C.ar    1  UNL1        0.0725
     16 N          60.6524   86.0615    7.7754 N.ar    1  UNL1       -0.3495
     17 H          59.7257   86.3501    7.6105 H       1  UNL1        0.1661
@<TRIPOS>BOND
     1    10    11    2
     2    11     1    1
     3     1     2    2
     4     2     3    1
     5     3     4   ar
     6     4     5   ar
     7     5     6   ar
     8     6     7    1
     9     6     8   ar
    10     8     9   ar
    11    11    12    1
    12    12    13   ar
    13    13    14   ar
    14    14    15   ar
    15    15    16   ar
    16     9     3   ar
    17    16    12   ar
    18    16    17    1
@<TRIPOS>MOLECULE
*****
 17 18 0 0 0
SMALL
GASTEIGER

@<TRIPOS>ATOM
      1 C          62.4674   88.3229   10.7759 C.2     1  UNL1        0.0435
      2 C          62.2246   89.4844   11.6934 C.2     1  UNL1        0.0033
      3 C          63.3012   90.5060   11.9112 C.ar    1  UNL1        0.0001
      4 C          63.7449   91.3815   10.7770 C.ar    1  UNL1        0.0005
      5 C          64.8215   92.4030   10.9948 C.ar    1  UNL1        0.0067
      6 C          65.4543   92.5491   12.3469 C.ar    1  UNL1        0.0346
      7 BR         66.5309   93.5707   12.5647 Br      1  UNL1       -0.0490
      8 C          65.0105   91.6736   13.4812 C.ar    1  UNL1        0.0067
      9 C          63.9340   90.6521   13.2634 C.ar    1  UNL1        0.0005
     10 O          61.2080   86.1832   11.5411 O.2     1  UNL1       -0.2850
     11 C          61.3908   87.3013   10.5581 C.2     1  UNL1        0.2111
     12 C          60.4971   87.3979    9.3573 C.ar    1  UNL1        0.0961
     13 C          60.0717   88.6638    8.6744 C.ar    1  UNL1        0.0218
     14 C          59.1836   88.2938    7.5236 C.ar    1  UNL1        0.0200
     15 C          59.0601   86.7991    7.4952 C.ar    1  UNL1        0.0725
     16 N          59.8719   86.2454    8.6285 N.ar    1  UNL1       -0.3495
     17 H          59.9761   85.2929    8.8544 H       1  UNL1        0.1661
@<TRIPOS>BOND
     1    10    11    2
     2    11     1    1
     3     1     2    2
     4     2     3    1
     5     3     4   ar
     6     4     5   ar
     7     5     6   ar
     8     6     7    1
     9     6     8   ar
    10     8     9   ar
    11    11    12    1
    12    12    13   ar
    13    13    14   ar
    14    14    15   ar
    15    15    16   ar
    16     9     3   ar
    17    16    12   ar
    18    16    17    1
@<TRIPOS>MOLECULE
*****
 17 18 0 0 0
SMALL
GASTEIGER

@<TRIPOS>ATOM
      1 C          61.4205   86.2705   11.1055 C.2     1  UNL1        0.0435
      2 C          62.6924   85.6669   11.6231 C.2     1  UNL1        0.0033
      3 C          62.6949   84.2644   12.1550 C.ar    1  UNL1        0.0001
      4 C          62.9276   83.1102   11.2257 C.ar    1  UNL1        0.0005
      5 C          62.9301   81.7077   11.7576 C.ar    1  UNL1        0.0067
      6 C          62.6999   81.4594   13.2189 C.ar    1  UNL1        0.0346
      7 BR         62.7025   80.0568   13.7508 Br      1  UNL1       -0.0490
      8 C          62.4673   82.6136   14.1483 C.ar    1  UNL1        0.0067
      9 C          62.4648   84.0160   13.6163 C.ar    1  UNL1        0.0005
     10 O          62.2250   88.7362   11.2581 O.2     1  UNL1       -0.2850
     11 C          61.4180   87.6731   10.5736 C.2     1  UNL1        0.2111
     12 C          60.6085   88.0125    9.3573 C.ar    1  UNL1        0.0961
     13 C          59.8029   87.0488    8.5373 C.ar    1  UNL1        0.0218
     14 C          59.1590   87.8159    7.4206 C.ar    1  UNL1        0.0200
     15 C          59.5665   89.2536    7.5505 C.ar    1  UNL1        0.0725
     16 N          60.4624   89.3751    8.7475 N.ar    1  UNL1       -0.3495
     17 H          60.8810   90.2037    9.0752 H       1  UNL1        0.1661
@<TRIPOS>BOND
     1    10    11    2
     2    11     1    1
     3     1     2    2
     4     2     3    1
     5     3     4   ar
     6     4     5   ar
     7     5     6   ar
     8     6     7    1
     9     6     8   ar
    10     8     9   ar
    11    11    12    1
    12    12    13   ar
    13    13    14   ar
    14    14    15   ar
    15    15    16   ar
    16     9     3   ar
    17    16    12   ar
    18    16    17    1
