@<TRIPOS>MOLECULE
*****
 51 51 0 0 0
SMALL
GASTEIGER

@<TRIPOS>ATOM
      1 C          61.8569   86.1458   10.2530 C.3     1  UNL1        0.0939
      2 C          62.4115   87.4147   10.8296 C.3     1  UNL1        0.1759
      3 O          62.7954   87.4753   12.2784 O.3     1  UNL1       -0.3696
      4 H          62.6228   86.6164   12.6948 H       1  UNL1        0.2119
      5 N          62.5822   88.6230    9.9573 N.3     1  UNL1       -0.2671
      6 H          62.2311   88.3711    9.0334 H       1  UNL1        0.1259
      7 C          61.9243   89.9178   10.3324 C.3     1  UNL1        0.1604
      8 C          60.5579   89.9131   10.9512 C.2     1  UNL1        0.3319
      9 O          59.5017   90.8496   10.4439 O.2     1  UNL1       -0.2486
     10 O          60.2477   88.9719   12.0772 O.3     1  UNL1       -0.4435
     11 C          58.8872   88.9807   12.7089 C.3     1  UNL1        0.2556
     12 C          62.6328   91.2173   10.0888 C.3     1  UNL1        0.0535
     13 C          63.8423   91.5758   10.9004 C.ar    1  UNL1       -0.0201
     14 C          63.9332   91.1545   12.3371 C.ar    1  UNL1       -0.0011
     15 C          65.1426   91.5130   13.1488 C.ar    1  UNL1        0.0366
     16 C          66.2612   92.2927   12.5237 C.ar    1  UNL1        0.1385
     17 C          66.1703   92.7140   11.0869 C.ar    1  UNL1        0.0366
     18 C          64.9608   92.3555   10.2753 C.ar    1  UNL1       -0.0011
     19 O          67.4706   92.6512   13.3353 O.3     1  UNL1       -0.4755
     20 C          68.0454   91.6596   14.3028 C.3     1  UNL1        0.2054
     21 C          68.1500   92.0060   15.7585 C.3     1  UNL1        0.0473
     22 C          67.9595   93.4246   16.2074 C.3     1  UNL1        0.0038
     23 C          69.1093   94.3867   16.1610 C.3     1  UNL1        0.0001
     24 C          60.9408   86.1987    9.0665 C.3     1  UNL1        0.1294
     25 O          59.8619   86.7883    9.9258 O.3     1  UNL1       -0.3810
     26 H          60.2289   87.5162   10.4515 H       1  UNL1        0.2107
     27 C          62.0197   85.6091    8.2072 C.2     1  UNL1        0.0749
     28 O          61.6965   84.4944    7.2570 O.co2   1  UNL1       -0.5468
     29 O          63.4218   86.1343    8.2981 O.co2   1  UNL1       -0.5468
     30 C          60.0246   86.2516    7.8800 C.3     1  UNL1        0.0648
     31 C          59.1370   87.4425    7.6703 C.3     1  UNL1        0.1451
     32 O          59.7398   88.8020    7.4747 O.3     1  UNL1       -0.3510
     33 C          59.1942   89.7198    6.4212 C.3     1  UNL1        0.1741
     34 C          63.6066   84.2786   10.7027 C.2     1  UNL1       -0.0305
     35 C          62.2185   84.8240   10.8630 C.2     1  UNL1       -0.0245
     36 C          63.9682   82.9569   11.3127 C.3     1  UNL1        0.0257
     37 C          63.0541   81.7792   11.1471 C.3     1  UNL1        0.0047
     38 C          63.0376   80.6914   12.1798 C.3     1  UNL1        0.0003
     39 C          62.0245   80.7223   13.2855 C.3     1  UNL1        0.0002
     40 C          61.6758   82.0225   13.9472 C.3     1  UNL1        0.0056
     41 C          62.5924   82.6079   14.9802 C.3     1  UNL1        0.0666
     42 C          63.3856   83.8417   14.6662 C.3     1  UNL1        0.2639
     43 F          62.1566   84.4874   14.0985 F       1  UNL1       -0.2043
     44 F          64.6147   83.1960   15.2340 F       1  UNL1       -0.2043
     45 C          64.1788   85.0756   14.3522 C.3     1  UNL1        0.0666
     46 C          64.2187   86.2110   15.3316 C.3     1  UNL1        0.0056
     47 C          63.6009   86.0524   16.6893 C.3     1  UNL1        0.0002
     48 C          62.6685   87.1025   17.2163 C.3     1  UNL1        0.0000
     49 C          63.1400   88.5189   17.3627 C.3     1  UNL1        0.0000
     50 C          63.6868   90.8221   16.2920 C.3     1  UNL1        0.0000
     51 C          63.0789   89.4546   16.1918 C.3     1  UNL1        0.0000
@<TRIPOS>UNITY_ATOM_ATTR
28 1
charge -1
@<TRIPOS>BOND
     1    50    51    1
     2    51    49    1
     3    49    48    1
     4    48    47    1
     5    47    46    1
     6    46    45    1
     7    45    42    1
     8    42    43    1
     9    42    44    1
    10    42    41    1
    11    41    40    1
    12    40    39    1
    13    39    38    1
    14    38    37    1
    15    37    36    1
    16    36    34    1
    17    34    35    2
    18    35     1    1
    19     1     2    1
    20     2     3    1
    21     2     5    1
    22     5     7    1
    23     7    12    1
    24    12    13    1
    25    13    14   ar
    26    14    15   ar
    27    15    16   ar
    28    16    19    1
    29    19    20    1
    30    20    21    1
    31    21    22    1
    32    22    23    1
    33    16    17   ar
    34    17    18   ar
    35     7     8    1
    36     8     9    2
    37     8    10    1
    38    10    11    1
    39     1    24    1
    40    24    25    1
    41    24    30    1
    42    30    31    1
    43    31    32    1
    44    32    33    1
    45    24    27    1
    46    27    28   ar
    47    27    29   ar
    48    18    13   ar
    49     3     4    1
    50     5     6    1
    51    25    26    1
@<TRIPOS>MOLECULE
*****
 51 51 0 0 0
SMALL
GASTEIGER

@<TRIPOS>ATOM
      1 C          61.7935   85.9379    9.5039 C.3     1  UNL1        0.0939
      2 C          61.8511   86.8001   10.7300 C.3     1  UNL1        0.1759
      3 O          61.2426   86.3195   12.0141 O.3     1  UNL1       -0.3696
      4 H          60.8568   85.4398   11.8797 H       1  UNL1        0.2119
      5 N          62.5170   88.1429   10.6720 N.3     1  UNL1       -0.2671
      6 H          62.4562   88.4602    9.7045 H       1  UNL1        0.1259
      7 C          62.0146   89.2670   11.5288 C.3     1  UNL1        0.1604
      8 C          60.6668   89.8689   11.2618 C.2     1  UNL1        0.3319
      9 O          60.2983   90.2964    9.8721 O.2     1  UNL1       -0.2486
     10 O          59.6875   90.0433   12.3847 O.3     1  UNL1       -0.4435
     11 C          58.7508   88.9278   12.7429 C.3     1  UNL1        0.2556
     12 C          62.8598   89.7891   12.6526 C.3     1  UNL1        0.0535
     13 C          63.8690   90.8682   12.3933 C.ar    1  UNL1       -0.0201
     14 C          63.9643   91.4950   11.0339 C.ar    1  UNL1       -0.0011
     15 C          64.9734   92.5741   10.7746 C.ar    1  UNL1        0.0366
     16 C          65.8872   93.0264   11.8747 C.ar    1  UNL1        0.1385
     17 C          65.7919   92.3996   13.2341 C.ar    1  UNL1        0.0366
     18 C          64.7828   91.3205   13.4934 C.ar    1  UNL1       -0.0011
     19 O          66.8963   94.1055   11.6154 O.3     1  UNL1       -0.4755
     20 C          66.7793   94.9631   10.3903 C.3     1  UNL1        0.2054
     21 C          67.7431   94.7845    9.2549 C.3     1  UNL1        0.0473
     22 C          67.9898   93.4175    8.6886 C.3     1  UNL1        0.0038
     23 C          68.7167   92.3884    9.5026 C.3     1  UNL1        0.0001
     24 C          60.8063   86.2447    8.4170 C.3     1  UNL1        0.1294
     25 O          60.0112   87.0811    9.3752 O.3     1  UNL1       -0.3810
     26 H          60.6064   87.6809    9.8516 H       1  UNL1        0.2107
     27 C          61.6014   85.4082    7.4587 C.2     1  UNL1        0.0749
     28 O          60.8982   84.5039    6.4905 O.co2   1  UNL1       -0.5468
     29 O          63.0998   85.4761    7.4688 O.co2   1  UNL1       -0.5468
     30 C          59.8192   86.5515    7.3300 C.3     1  UNL1        0.0648
     31 C          58.8658   87.6991    7.4848 C.3     1  UNL1        0.1451
     32 O          59.3651   89.1092    7.3737 O.3     1  UNL1       -0.3510
     33 C          59.3440   89.8100    6.0477 C.3     1  UNL1        0.1741
     34 C          63.3889   84.1916   10.5785 C.2     1  UNL1       -0.0305
     35 C          62.7231   84.7689    9.3647 C.2     1  UNL1       -0.0245
     36 C          64.3185   83.0226   10.4393 C.3     1  UNL1        0.0257
     37 C          63.7803   81.6241   10.5073 C.3     1  UNL1        0.0047
     38 C          62.6019   81.3157   11.3828 C.3     1  UNL1        0.0003
     39 C          62.7249   80.2929   12.4731 C.3     1  UNL1        0.0002
     40 C          62.3235   80.6403   13.8760 C.3     1  UNL1        0.0056
     41 C          62.1441   82.0761   14.2711 C.3     1  UNL1        0.0666
     42 C          63.2785   83.0447   14.1137 C.3     1  UNL1        0.2639
     43 F          64.2566   81.9480   14.4144 F       1  UNL1       -0.2043
     44 F          62.3004   84.1414   13.8129 F       1  UNL1       -0.2043
     45 C          64.4130   84.0133   13.9563 C.3     1  UNL1        0.0666
     46 C          64.1375   85.4861   13.8856 C.3     1  UNL1        0.0056
     47 C          64.4010   86.3565   15.0786 C.3     1  UNL1        0.0002
     48 C          63.9523   85.9178   16.4409 C.3     1  UNL1        0.0000
     49 C          62.7856   86.5922   17.0995 C.3     1  UNL1        0.0000
     50 C          63.1540   89.1041   16.5474 C.3     1  UNL1        0.0000
     51 C          62.9003   88.0183   17.5507 C.3     1  UNL1        0.0000
@<TRIPOS>UNITY_ATOM_ATTR
28 1
charge -1
@<TRIPOS>BOND
     1    50    51    1
     2    51    49    1
     3    49    48    1
     4    48    47    1
     5    47    46    1
     6    46    45    1
     7    45    42    1
     8    42    43    1
     9    42    44    1
    10    42    41    1
    11    41    40    1
    12    40    39    1
    13    39    38    1
    14    38    37    1
    15    37    36    1
    16    36    34    1
    17    34    35    2
    18    35     1    1
    19     1     2    1
    20     2     3    1
    21     2     5    1
    22     5     7    1
    23     7    12    1
    24    12    13    1
    25    13    14   ar
    26    14    15   ar
    27    15    16   ar
    28    16    19    1
    29    19    20    1
    30    20    21    1
    31    21    22    1
    32    22    23    1
    33    16    17   ar
    34    17    18   ar
    35     7     8    1
    36     8     9    2
    37     8    10    1
    38    10    11    1
    39     1    24    1
    40    24    25    1
    41    24    30    1
    42    30    31    1
    43    31    32    1
    44    32    33    1
    45    24    27    1
    46    27    28   ar
    47    27    29   ar
    48    18    13   ar
    49     3     4    1
    50     5     6    1
    51    25    26    1
@<TRIPOS>MOLECULE
*****
 51 51 0 0 0
SMALL
GASTEIGER

@<TRIPOS>ATOM
      1 C          65.2283   92.3385   11.5171 C.3     1  UNL1        0.0939
      2 C          64.9846   92.3696   12.9969 C.3     1  UNL1        0.1759
      3 O          65.9354   93.0998   13.8984 O.3     1  UNL1       -0.3696
      4 H          66.6467   93.4923   13.3683 H       1  UNL1        0.2119
      5 N          63.7901   91.6706   13.5751 N.3     1  UNL1       -0.2671
      6 H          63.2829   91.2579   12.7922 H       1  UNL1        0.1259
      7 C          63.9765   90.5833   14.5916 C.3     1  UNL1        0.1604
      8 C          63.3190   90.6921   15.9354 C.2     1  UNL1        0.3319
      9 O          63.5444   91.9080   16.7844 O.2     1  UNL1       -0.2486
     10 O          62.4360   89.5850   16.4301 O.3     1  UNL1       -0.4435
     11 C          63.0340   88.4155   17.1543 C.3     1  UNL1        0.2556
     12 C          64.8206   89.3873   14.2643 C.3     1  UNL1        0.0535
     13 C          64.1829   88.1490   13.7075 C.ar    1  UNL1       -0.0201
     14 C          63.3265   88.2340   12.4789 C.ar    1  UNL1       -0.0011
     15 C          62.6889   86.9957   11.9221 C.ar    1  UNL1        0.0366
     16 C          62.9075   85.6725   12.5938 C.ar    1  UNL1        0.1385
     17 C          63.7639   85.5876   13.8224 C.ar    1  UNL1        0.0366
     18 C          64.4016   86.8258   14.3792 C.ar    1  UNL1       -0.0011
     19 O          62.2699   84.4342   12.0370 O.3     1  UNL1       -0.4755
     20 C          62.6794   83.0849   12.5484 C.3     1  UNL1        0.2054
     21 C          63.2078   82.0514   11.5982 C.3     1  UNL1        0.0473
     22 C          64.1682   82.4485   10.5165 C.3     1  UNL1        0.0038
     23 C          63.8505   83.6084    9.6201 C.3     1  UNL1        0.0001
     24 C          66.1370   93.3509   10.8852 C.3     1  UNL1        0.1294
     25 O          65.0014   94.3287   10.8188 O.3     1  UNL1       -0.3810
     26 H          64.5503   94.3591   11.6770 H       1  UNL1        0.2107
     27 C          67.2726   92.3731   10.9516 C.2     1  UNL1        0.0749
     28 O          67.8056   91.7562    9.6926 O.co2   1  UNL1       -0.5468
     29 O          67.8751   92.0124   12.2770 O.co2   1  UNL1       -0.5468
     30 C          67.0457   94.3634   10.2533 C.3     1  UNL1        0.0648
     31 C          66.7704   95.8280   10.4237 C.3     1  UNL1        0.1451
     32 O          67.1772   96.7971    9.3535 O.3     1  UNL1       -0.3510
     33 C          66.5955   96.6807    7.9758 C.3     1  UNL1        0.1741
     34 C          63.0667   91.2365   10.5881 C.2     1  UNL1       -0.0305
     35 C          64.5634   91.2950   10.6692 C.2     1  UNL1       -0.0245
     36 C          62.4018   90.1930    9.7403 C.3     1  UNL1        0.0257
     37 C          60.9089   90.0481    9.7625 C.3     1  UNL1        0.0047
     38 C          60.2777   88.7337    9.4101 C.3     1  UNL1        0.0003
     39 C          59.5792   88.5664    8.0932 C.3     1  UNL1        0.0002
     40 C          59.9516   89.4378    6.9306 C.3     1  UNL1        0.0056
     41 C          58.8880   89.9449    6.0023 C.3     1  UNL1        0.0666
     42 C          59.0962   91.2270    5.2523 C.3     1  UNL1        0.2639
     43 F          57.6240   91.5063    5.3212 F       1  UNL1       -0.2043
     44 F          60.5683   90.9478    5.1834 F       1  UNL1       -0.2043
     45 C          59.3043   92.5093    4.5022 C.3     1  UNL1        0.0666
     46 C          59.2494   92.5188    3.0032 C.3     1  UNL1        0.0056
     47 C          60.0961   93.4841    2.2278 C.3     1  UNL1        0.0002
     48 C          61.3980   93.0320    1.6357 C.3     1  UNL1        0.0000
     49 C          62.6078   92.8829    2.5098 C.3     1  UNL1        0.0000
     50 C          63.4742   90.5953    3.3853 C.3     1  UNL1        0.0000
     51 C          63.5006   91.6872    2.3571 C.3     1  UNL1        0.0000
@<TRIPOS>UNITY_ATOM_ATTR
28 1
charge -1
@<TRIPOS>BOND
     1    50    51    1
     2    51    49    1
     3    49    48    1
     4    48    47    1
     5    47    46    1
     6    46    45    1
     7    45    42    1
     8    42    43    1
     9    42    44    1
    10    42    41    1
    11    41    40    1
    12    40    39    1
    13    39    38    1
    14    38    37    1
    15    37    36    1
    16    36    34    1
    17    34    35    2
    18    35     1    1
    19     1     2    1
    20     2     3    1
    21     2     5    1
    22     5     7    1
    23     7    12    1
    24    12    13    1
    25    13    14   ar
    26    14    15   ar
    27    15    16   ar
    28    16    19    1
    29    19    20    1
    30    20    21    1
    31    21    22    1
    32    22    23    1
    33    16    17   ar
    34    17    18   ar
    35     7     8    1
    36     8     9    2
    37     8    10    1
    38    10    11    1
    39     1    24    1
    40    24    25    1
    41    24    30    1
    42    30    31    1
    43    31    32    1
    44    32    33    1
    45    24    27    1
    46    27    28   ar
    47    27    29   ar
    48    18    13   ar
    49     3     4    1
    50     5     6    1
    51    25    26    1
@<TRIPOS>MOLECULE
*****
 51 51 0 0 0
SMALL
GASTEIGER

@<TRIPOS>ATOM
      1 C          61.9368   89.2139   10.6479 C.3     1  UNL1        0.0939
      2 C          60.5955   89.4780   10.0304 C.3     1  UNL1        0.1759
      3 O          59.3747   89.5657   10.8976 O.3     1  UNL1       -0.3696
      4 H          59.6261   89.4296   11.8245 H       1  UNL1        0.2119
      5 N          60.4750   89.6543    8.5457 N.3     1  UNL1       -0.2671
      6 H          61.4166   89.5721    8.1620 H       1  UNL1        0.1259
      7 C          59.6009   88.7314    7.7492 C.3     1  UNL1        0.1604
      8 C          59.7443   87.2459    7.9006 C.2     1  UNL1        0.3319
      9 O          58.5299   86.3939    8.1220 O.2     1  UNL1       -0.2486
     10 O          61.1023   86.6126    7.8304 O.3     1  UNL1       -0.4435
     11 C          61.2804   85.2952    7.1357 C.3     1  UNL1        0.2556
     12 C          58.5834   89.2939    6.8016 C.3     1  UNL1        0.0535
     13 C          58.9787   90.3593    5.8224 C.ar    1  UNL1       -0.0201
     14 C          60.4117   90.4964    5.4012 C.ar    1  UNL1       -0.0011
     15 C          60.8070   91.5618    4.4221 C.ar    1  UNL1        0.0366
     16 C          59.7693   92.4901    3.8642 C.ar    1  UNL1        0.1385
     17 C          58.3362   92.3530    4.2854 C.ar    1  UNL1        0.0366
     18 C          57.9409   91.2876    5.2645 C.ar    1  UNL1       -0.0011
     19 O          60.1646   93.5555    2.8850 O.3     1  UNL1       -0.4755
     20 C          60.0487   93.3002    1.4115 C.3     1  UNL1        0.2054
     21 C          61.1078   92.5101    0.7016 C.3     1  UNL1        0.0473
     22 C          62.5412   92.9473    0.7689 C.3     1  UNL1        0.0038
     23 C          63.2881   92.8720    2.0675 C.3     1  UNL1        0.0001
     24 C          62.7971   90.3599   11.0912 C.3     1  UNL1        0.1294
     25 O          62.8474   90.8677    9.6807 O.3     1  UNL1       -0.3810
     26 H          61.9514   90.8800    9.3093 H       1  UNL1        0.2107
     27 C          62.7467   89.8522   12.5017 C.2     1  UNL1        0.0749
     28 O          64.0123   89.4527   13.2007 O.co2   1  UNL1       -0.5468
     29 O          61.4307   89.7438   13.2133 O.co2   1  UNL1       -0.5468
     30 C          63.6574   91.5060   11.5345 C.3     1  UNL1        0.0648
     31 C          64.7022   92.0601   10.6119 C.3     1  UNL1        0.1451
     32 O          65.8460   92.8565   11.1663 O.3     1  UNL1       -0.3510
     33 C          66.6904   93.6932   10.2515 C.3     1  UNL1        0.1741
     34 C          61.4439   86.7167   11.1687 C.2     1  UNL1       -0.0305
     35 C          62.4177   87.8038   10.8222 C.2     1  UNL1       -0.0245
     36 C          61.9248   85.3067   11.3430 C.3     1  UNL1        0.0257
     37 C          62.9182   84.7285   10.3792 C.3     1  UNL1        0.0047
     38 C          64.0737   83.9188   10.8885 C.3     1  UNL1        0.0003
     39 C          64.2902   82.5222   10.3861 C.3     1  UNL1        0.0002
     40 C          63.2003   81.5002   10.5183 C.3     1  UNL1        0.0056
     41 C          63.1174   80.6472   11.7494 C.3     1  UNL1        0.0666
     42 C          62.6250   81.2360   13.0381 C.3     1  UNL1        0.2639
     43 F          63.6206   80.4091   13.7963 F       1  UNL1       -0.2043
     44 F          61.6293   82.0628   12.2799 F       1  UNL1       -0.2043
     45 C          62.1326   81.8248   14.3269 C.3     1  UNL1        0.0666
     46 C          62.3766   83.2732   14.6313 C.3     1  UNL1        0.0056
     47 C          63.7589   83.8427   14.5093 C.3     1  UNL1        0.0002
     48 C          63.9536   85.3277   14.4267 C.3     1  UNL1        0.0000
     49 C          64.0558   86.1417   15.6824 C.3     1  UNL1        0.0000
     50 C          62.8283   87.0954   17.7642 C.3     1  UNL1        0.0000
     51 C          63.0138   86.0035   16.7527 C.3     1  UNL1        0.0000
@<TRIPOS>UNITY_ATOM_ATTR
28 1
charge -1
@<TRIPOS>BOND
     1    50    51    1
     2    51    49    1
     3    49    48    1
     4    48    47    1
     5    47    46    1
     6    46    45    1
     7    45    42    1
     8    42    43    1
     9    42    44    1
    10    42    41    1
    11    41    40    1
    12    40    39    1
    13    39    38    1
    14    38    37    1
    15    37    36    1
    16    36    34    1
    17    34    35    2
    18    35     1    1
    19     1     2    1
    20     2     3    1
    21     2     5    1
    22     5     7    1
    23     7    12    1
    24    12    13    1
    25    13    14   ar
    26    14    15   ar
    27    15    16   ar
    28    16    19    1
    29    19    20    1
    30    20    21    1
    31    21    22    1
    32    22    23    1
    33    16    17   ar
    34    17    18   ar
    35     7     8    1
    36     8     9    2
    37     8    10    1
    38    10    11    1
    39     1    24    1
    40    24    25    1
    41    24    30    1
    42    30    31    1
    43    31    32    1
    44    32    33    1
    45    24    27    1
    46    27    28   ar
    47    27    29   ar
    48    18    13   ar
    49     3     4    1
    50     5     6    1
    51    25    26    1
@<TRIPOS>MOLECULE
*****
 51 51 0 0 0
SMALL
GASTEIGER

@<TRIPOS>ATOM
      1 C          62.5726   85.0520   11.5334 C.3     1  UNL1        0.0939
      2 C          62.3339   86.4760   11.9403 C.3     1  UNL1        0.1759
      3 O          63.3834   87.2222   12.7094 O.3     1  UNL1       -0.3696
      4 H          64.1471   86.6433   12.8595 H       1  UNL1        0.2119
      5 N          61.0457   87.1536   11.5780 N.3     1  UNL1       -0.2671
      6 H          60.4065   87.0082   12.3594 H       1  UNL1        0.1259
      7 C          61.0306   88.6225   11.2738 C.3     1  UNL1        0.1604
      8 C          59.9506   89.4949   11.8418 C.2     1  UNL1        0.3319
      9 O          59.5367   90.7424   11.1192 O.2     1  UNL1       -0.2486
     10 O          59.2845   89.1196   13.1324 O.3     1  UNL1       -0.4435
     11 C          57.8524   88.6736   13.1353 C.3     1  UNL1        0.2556
     12 C          62.0953   89.2188   10.4017 C.3     1  UNL1        0.0535
     13 C          63.0253   90.2566   10.9568 C.ar    1  UNL1       -0.0201
     14 C          63.3909   90.2350   12.4114 C.ar    1  UNL1       -0.0011
     15 C          64.3208   91.2728   12.9665 C.ar    1  UNL1        0.0366
     16 C          64.8852   92.3322   12.0670 C.ar    1  UNL1        0.1385
     17 C          64.5196   92.3538   10.6124 C.ar    1  UNL1        0.0366
     18 C          63.5897   91.3160   10.0574 C.ar    1  UNL1       -0.0011
     19 O          65.8151   93.3701   12.6221 O.3     1  UNL1       -0.4755
     20 C          66.9580   92.9591   13.5024 C.3     1  UNL1        0.2054
     21 C          67.0615   93.4989   14.8980 C.3     1  UNL1        0.0473
     22 C          68.3870   93.5138   15.6001 C.3     1  UNL1        0.0038
     23 C          68.8285   92.3203   16.3942 C.3     1  UNL1        0.0001
     24 C          62.9422   84.0289   12.5661 C.3     1  UNL1        0.1294
     25 O          62.3520   84.8970   13.6375 O.3     1  UNL1       -0.3810
     26 H          61.4733   85.2003   13.3603 H       1  UNL1        0.2107
     27 C          63.5325   83.1607   11.4947 C.2     1  UNL1        0.0749
     28 O          64.9343   83.4041   11.0197 O.co2   1  UNL1       -0.5468
     29 O          62.7210   82.0492   10.8982 O.co2   1  UNL1       -0.5468
     30 C          63.3119   83.0057   13.5988 C.3     1  UNL1        0.0648
     31 C          62.2620   82.4531   14.5165 C.3     1  UNL1        0.1451
     32 O          61.5916   81.1512   14.1915 O.3     1  UNL1       -0.3510
     33 C          62.3441   80.0838   13.4538 C.3     1  UNL1        0.1741
     34 C          62.4175   85.7008    9.0224 C.2     1  UNL1       -0.0305
     35 C          62.4416   84.6513   10.0939 C.2     1  UNL1       -0.0245
     36 C          62.2866   85.3001    7.5829 C.3     1  UNL1        0.0257
     37 C          60.9973   85.5354    6.8532 C.3     1  UNL1        0.0047
     38 C          59.8218   86.1216    7.5774 C.3     1  UNL1        0.0003
     39 C          59.7772   87.5926    7.8676 C.3     1  UNL1        0.0002
     40 C          59.7782   88.5802    6.7386 C.3     1  UNL1        0.0056
     41 C          58.6114   89.5035    6.5488 C.3     1  UNL1        0.0666
     42 C          58.6956   90.6241    5.5553 C.3     1  UNL1        0.2639
     43 F          60.1903   90.5000    5.5419 F       1  UNL1       -0.2043
     44 F          57.2008   90.7482    5.5686 F       1  UNL1       -0.2043
     45 C          58.7798   91.7447    4.5616 C.3     1  UNL1        0.0666
     46 C          60.1024   92.1144    3.9585 C.3     1  UNL1        0.0056
     47 C          60.2056   93.3013    3.0470 C.3     1  UNL1        0.0002
     48 C          60.8842   93.1681    1.7160 C.3     1  UNL1        0.0000
     49 C          61.8936   92.0809    1.4943 C.3     1  UNL1        0.0000
     50 C          63.4556   90.9670    3.2462 C.3     1  UNL1        0.0000
     51 C          63.1740   92.0755    2.2757 C.3     1  UNL1        0.0000
@<TRIPOS>UNITY_ATOM_ATTR
28 1
charge -1
@<TRIPOS>BOND
     1    50    51    1
     2    51    49    1
     3    49    48    1
     4    48    47    1
     5    47    46    1
     6    46    45    1
     7    45    42    1
     8    42    43    1
     9    42    44    1
    10    42    41    1
    11    41    40    1
    12    40    39    1
    13    39    38    1
    14    38    37    1
    15    37    36    1
    16    36    34    1
    17    34    35    2
    18    35     1    1
    19     1     2    1
    20     2     3    1
    21     2     5    1
    22     5     7    1
    23     7    12    1
    24    12    13    1
    25    13    14   ar
    26    14    15   ar
    27    15    16   ar
    28    16    19    1
    29    19    20    1
    30    20    21    1
    31    21    22    1
    32    22    23    1
    33    16    17   ar
    34    17    18   ar
    35     7     8    1
    36     8     9    2
    37     8    10    1
    38    10    11    1
    39     1    24    1
    40    24    25    1
    41    24    30    1
    42    30    31    1
    43    31    32    1
    44    32    33    1
    45    24    27    1
    46    27    28   ar
    47    27    29   ar
    48    18    13   ar
    49     3     4    1
    50     5     6    1
    51    25    26    1
@<TRIPOS>MOLECULE
*****
 51 51 0 0 0
SMALL
GASTEIGER

@<TRIPOS>ATOM
      1 C          60.4823   88.1271    9.4916 C.3     1  UNL1        0.0939
      2 C          59.9868   88.8843   10.6880 C.3     1  UNL1        0.1759
      3 O          58.9159   88.2953   11.5576 O.3     1  UNL1       -0.3696
      4 H          58.6569   87.4280   11.2089 H       1  UNL1        0.2119
      5 N          60.5623   90.2304   11.0147 N.3     1  UNL1       -0.2671
      6 H          59.9901   90.6214   11.7631 H       1  UNL1        0.1259
      7 C          61.9913   90.3483   11.4553 C.3     1  UNL1        0.1604
      8 C          62.4959   89.5141   12.5953 C.2     1  UNL1        0.3319
      9 O          63.3819   88.3340   12.3263 O.2     1  UNL1       -0.2486
     10 O          62.1144   89.8600   14.0042 O.3     1  UNL1       -0.4435
     11 C          63.0671   89.5819   15.1289 C.3     1  UNL1        0.2556
     12 C          62.9156   91.3005   10.7561 C.3     1  UNL1        0.0535
     13 C          64.2208   91.6807   11.3902 C.ar    1  UNL1       -0.0201
     14 C          64.4033   91.5409   12.8724 C.ar    1  UNL1       -0.0011
     15 C          65.7085   91.9211   13.5065 C.ar    1  UNL1        0.0366
     16 C          66.8311   92.4410   12.6583 C.ar    1  UNL1        0.1385
     17 C          66.6485   92.5808   11.1760 C.ar    1  UNL1        0.0366
     18 C          65.3433   92.2006   10.5420 C.ar    1  UNL1       -0.0011
     19 O          68.1362   92.8212   13.2923 O.3     1  UNL1       -0.4755
     20 C          68.7837   91.9018   14.2850 C.3     1  UNL1        0.2054
     21 C          68.5966   92.1338   15.7551 C.3     1  UNL1        0.0473
     22 C          68.2322   93.4990   16.2586 C.3     1  UNL1        0.0038
     23 C          69.1888   94.6416   16.0870 C.3     1  UNL1        0.0001
     24 C          59.9363   88.4366    8.1292 C.3     1  UNL1        0.1294
     25 O          60.3765   89.8629    8.2768 O.3     1  UNL1       -0.3810
     26 H          61.2939   89.8873    8.5910 H       1  UNL1        0.2107
     27 C          59.4961   87.0102    7.9817 C.2     1  UNL1        0.0749
     28 O          58.1328   86.5939    8.4487 O.co2   1  UNL1       -0.5468
     29 O          60.4191   86.0002    7.3670 O.co2   1  UNL1       -0.5468
     30 C          59.3902   88.7460    6.7669 C.3     1  UNL1        0.0648
     31 C          59.0157   90.1542    6.4111 C.3     1  UNL1        0.1451
     32 O          59.7546   90.8746    5.3225 O.3     1  UNL1       -0.3510
     33 C          59.1314   92.0633    4.6527 C.3     1  UNL1        0.1741
     34 C          61.4101   86.0691   10.7776 C.2     1  UNL1       -0.0305
     35 C          61.5238   87.0605    9.6577 C.2     1  UNL1       -0.0245
     36 C          62.4516   85.0025   10.9437 C.3     1  UNL1        0.0257
     37 C          63.0245   84.3194    9.7374 C.3     1  UNL1        0.0047
     38 C          64.2756   83.5012    9.8623 C.3     1  UNL1        0.0003
     39 C          64.3697   82.4296   10.9077 C.3     1  UNL1        0.0002
     40 C          63.4698   81.2317   10.8368 C.3     1  UNL1        0.0056
     41 C          62.6919   80.8054   12.0464 C.3     1  UNL1        0.0666
     42 C          62.7973   81.5897   13.3207 C.3     1  UNL1        0.2639
     43 F          63.9561   80.7388   13.7485 F       1  UNL1       -0.2043
     44 F          61.6385   82.4407   12.8928 F       1  UNL1       -0.2043
     45 C          62.9028   82.3740   14.5950 C.3     1  UNL1        0.0666
     46 C          64.1052   83.2339   14.8491 C.3     1  UNL1        0.0056
     47 C          64.3678   84.4308   13.9838 C.3     1  UNL1        0.0002
     48 C          64.1643   85.8120   14.5323 C.3     1  UNL1        0.0000
     49 C          64.1391   86.0336   16.0156 C.3     1  UNL1        0.0000
     50 C          62.6953   86.6251   18.0930 C.3     1  UNL1        0.0000
     51 C          62.8433   85.9424   16.7657 C.3     1  UNL1        0.0000
@<TRIPOS>UNITY_ATOM_ATTR
28 1
charge -1
@<TRIPOS>BOND
     1    50    51    1
     2    51    49    1
     3    49    48    1
     4    48    47    1
     5    47    46    1
     6    46    45    1
     7    45    42    1
     8    42    43    1
     9    42    44    1
    10    42    41    1
    11    41    40    1
    12    40    39    1
    13    39    38    1
    14    38    37    1
    15    37    36    1
    16    36    34    1
    17    34    35    2
    18    35     1    1
    19     1     2    1
    20     2     3    1
    21     2     5    1
    22     5     7    1
    23     7    12    1
    24    12    13    1
    25    13    14   ar
    26    14    15   ar
    27    15    16   ar
    28    16    19    1
    29    19    20    1
    30    20    21    1
    31    21    22    1
    32    22    23    1
    33    16    17   ar
    34    17    18   ar
    35     7     8    1
    36     8     9    2
    37     8    10    1
    38    10    11    1
    39     1    24    1
    40    24    25    1
    41    24    30    1
    42    30    31    1
    43    31    32    1
    44    32    33    1
    45    24    27    1
    46    27    28   ar
    47    27    29   ar
    48    18    13   ar
    49     3     4    1
    50     5     6    1
    51    25    26    1
@<TRIPOS>MOLECULE
*****
 51 51 0 0 0
SMALL
GASTEIGER

@<TRIPOS>ATOM
      1 C          62.7024   84.0778   11.6525 C.3     1  UNL1        0.0939
      2 C          62.6197   85.2029   12.6412 C.3     1  UNL1        0.1759
      3 O          62.8223   86.6177   12.1859 O.3     1  UNL1       -0.3696
      4 H          62.9954   86.6286   11.2315 H       1  UNL1        0.2119
      5 N          62.3345   84.9132   14.0850 N.3     1  UNL1       -0.2671
      6 H          61.9314   83.9770   14.1234 H       1  UNL1        0.1259
      7 C          63.4469   84.9473   15.0908 C.3     1  UNL1        0.1604
      8 C          64.5981   83.9935   14.9684 C.2     1  UNL1        0.3319
      9 O          64.5407   82.6576   15.6483 O.2     1  UNL1       -0.2486
     10 O          65.8066   84.3755   14.1662 O.3     1  UNL1       -0.4435
     11 C          66.9053   85.1762   14.8003 C.3     1  UNL1        0.2556
     12 C          63.4081   85.9352   16.2188 C.3     1  UNL1        0.0535
     13 C          63.6169   87.3951   15.9447 C.ar    1  UNL1       -0.0201
     14 C          63.0707   88.4217   16.8922 C.ar    1  UNL1       -0.0011
     15 C          63.2795   89.8816   16.6182 C.ar    1  UNL1        0.0366
     16 C          64.0345   90.3149   15.3966 C.ar    1  UNL1        0.1385
     17 C          64.5806   89.2883   14.4491 C.ar    1  UNL1        0.0366
     18 C          64.3718   87.8284   14.7232 C.ar    1  UNL1       -0.0011
     19 O          64.2433   91.7748   15.1226 O.3     1  UNL1       -0.4755
     20 C          65.5987   92.3877   15.3153 C.3     1  UNL1        0.2054
     21 C          66.6285   92.2874   14.2292 C.3     1  UNL1        0.0473
     22 C          68.0765   92.1175   14.5821 C.3     1  UNL1        0.0038
     23 C          68.5501   92.4204   15.9727 C.3     1  UNL1        0.0001
     24 C          62.6554   82.6561   12.1286 C.3     1  UNL1        0.1294
     25 O          61.5839   83.0211   13.1129 O.3     1  UNL1       -0.3810
     26 H          60.8985   83.5423   12.6662 H       1  UNL1        0.2107
     27 C          63.7268   82.2911   11.1444 C.2     1  UNL1        0.0749
     28 O          65.0351   83.0248   11.1535 O.co2   1  UNL1       -0.5468
     29 O          63.4901   81.1924   10.1511 O.co2   1  UNL1       -0.5468
     30 C          62.6084   81.2345   12.6047 C.3     1  UNL1        0.0648
     31 C          62.2666   80.9330   14.0338 C.3     1  UNL1        0.1451
     32 O          60.8654   81.1366   14.5289 O.3     1  UNL1       -0.3510
     33 C          59.7812   80.1817   14.1256 C.3     1  UNL1        0.1741
     34 C          61.9355   85.3916    9.5464 C.2     1  UNL1       -0.0305
     35 C          62.8320   84.3743   10.1879 C.2     1  UNL1       -0.0245
     36 C          62.0651   85.6881    8.0818 C.3     1  UNL1        0.0257
     37 C          60.8361   85.8286    7.2333 C.3     1  UNL1        0.0047
     38 C          59.5574   86.3237    7.8416 C.3     1  UNL1        0.0003
     39 C          59.2044   87.7795    7.7641 C.3     1  UNL1        0.0002
     40 C          60.1298   88.8076    8.3443 C.3     1  UNL1        0.0056
     41 C          60.5842   88.6888    9.7688 C.3     1  UNL1        0.0666
     42 C          61.4239   89.7706   10.3809 C.3     1  UNL1        0.2639
     43 F          62.6668   89.0389    9.9688 F       1  UNL1       -0.2043
     44 F          60.1810   90.5022   10.7929 F       1  UNL1       -0.2043
     45 C          62.2637   90.8524   10.9929 C.3     1  UNL1        0.0666
     46 C          63.5043   91.3245   10.2944 C.3     1  UNL1        0.0056
     47 C          64.6501   91.8750   11.0908 C.3     1  UNL1        0.0002
     48 C          65.2333   93.2117   10.7404 C.3     1  UNL1        0.0000
     49 C          66.7182   93.3676   10.5966 C.3     1  UNL1        0.0000
     50 C          68.5964   92.3782    9.0987 C.3     1  UNL1        0.0000
     51 C          67.5566   92.2010   10.1651 C.3     1  UNL1        0.0000
@<TRIPOS>UNITY_ATOM_ATTR
28 1
charge -1
@<TRIPOS>BOND
     1    50    51    1
     2    51    49    1
     3    49    48    1
     4    48    47    1
     5    47    46    1
     6    46    45    1
     7    45    42    1
     8    42    43    1
     9    42    44    1
    10    42    41    1
    11    41    40    1
    12    40    39    1
    13    39    38    1
    14    38    37    1
    15    37    36    1
    16    36    34    1
    17    34    35    2
    18    35     1    1
    19     1     2    1
    20     2     3    1
    21     2     5    1
    22     5     7    1
    23     7    12    1
    24    12    13    1
    25    13    14   ar
    26    14    15   ar
    27    15    16   ar
    28    16    19    1
    29    19    20    1
    30    20    21    1
    31    21    22    1
    32    22    23    1
    33    16    17   ar
    34    17    18   ar
    35     7     8    1
    36     8     9    2
    37     8    10    1
    38    10    11    1
    39     1    24    1
    40    24    25    1
    41    24    30    1
    42    30    31    1
    43    31    32    1
    44    32    33    1
    45    24    27    1
    46    27    28   ar
    47    27    29   ar
    48    18    13   ar
    49     3     4    1
    50     5     6    1
    51    25    26    1
@<TRIPOS>MOLECULE
*****
 51 51 0 0 0
SMALL
GASTEIGER

@<TRIPOS>ATOM
      1 C          63.8969   90.7859   12.4724 C.3     1  UNL1        0.0939
      2 C          63.5874   89.9655   13.6895 C.3     1  UNL1        0.1759
      3 O          62.2181   90.0163   14.2998 O.3     1  UNL1       -0.3696
      4 H          61.6589   90.6227   13.7894 H       1  UNL1        0.2119
      5 N          64.6471   89.0944   14.2961 N.3     1  UNL1       -0.2671
      6 H          65.2962   89.7144   14.7805 H       1  UNL1        0.1259
      7 C          64.2669   88.0189   15.2703 C.3     1  UNL1        0.1604
      8 C          63.2692   88.3062   16.3529 C.2     1  UNL1        0.3319
      9 O          63.2203   89.6649   16.9865 O.2     1  UNL1       -0.2486
     10 O          62.3204   87.2346   16.8020 O.3     1  UNL1       -0.4435
     11 C          62.6326   86.4197   18.0220 C.3     1  UNL1        0.2556
     12 C          64.8845   86.6563   15.1618 C.3     1  UNL1        0.0535
     13 C          64.3372   85.6606   14.1824 C.ar    1  UNL1       -0.0201
     14 C          64.8514   84.2515   14.1789 C.ar    1  UNL1       -0.0011
     15 C          64.3041   83.2559   13.1995 C.ar    1  UNL1        0.0366
     16 C          63.2427   83.6694   12.2236 C.ar    1  UNL1        0.1385
     17 C          62.7286   85.0784   12.2271 C.ar    1  UNL1        0.0366
     18 C          63.2758   86.0741   13.2065 C.ar    1  UNL1       -0.0011
     19 O          62.6955   82.6737   11.2442 O.3     1  UNL1       -0.4755
     20 C          63.2385   81.2758   11.2132 C.3     1  UNL1        0.2054
     21 C          62.5530   80.1877   11.9852 C.3     1  UNL1        0.0473
     22 C          62.4428   80.2824   13.4782 C.3     1  UNL1        0.0038
     23 C          61.2868   81.0080   14.1003 C.3     1  UNL1        0.0001
     24 C          64.9126   91.8871   12.5486 C.3     1  UNL1        0.1294
     25 O          64.7137   92.1715   11.0893 O.3     1  UNL1       -0.3810
     26 H          63.7645   92.2237   10.8965 H       1  UNL1        0.2107
     27 C          65.1115   91.6026   14.0078 C.2     1  UNL1        0.0749
     28 O          66.4033   91.0095   14.4871 O.co2   1  UNL1       -0.5468
     29 O          64.0188   91.9111   14.9879 O.co2   1  UNL1       -0.5468
     30 C          65.9283   92.9882   12.6248 C.3     1  UNL1        0.0648
     31 C          66.0433   93.9812   11.5064 C.3     1  UNL1        0.1451
     32 O          67.2102   93.9198   10.5660 O.3     1  UNL1       -0.3510
     33 C          67.0528   94.3731    9.1448 C.3     1  UNL1        0.1741
     34 C          62.5177   89.1819   10.9641 C.2     1  UNL1       -0.0305
     35 C          63.1908   90.5051   11.1791 C.2     1  UNL1       -0.0245
     36 C          61.8115   88.9011    9.6709 C.3     1  UNL1        0.0257
     37 C          61.1946   87.5552    9.4300 C.3     1  UNL1        0.0047
     38 C          59.7496   87.4512    9.0413 C.3     1  UNL1        0.0003
     39 C          59.3548   87.5213    7.5959 C.3     1  UNL1        0.0002
     40 C          58.8992   88.8226    7.0051 C.3     1  UNL1        0.0056
     41 C          59.8946   89.7470    6.3690 C.3     1  UNL1        0.0666
     42 C          59.4382   90.7672    5.3687 C.3     1  UNL1        0.2639
     43 F          58.0094   90.4470    5.6940 F       1  UNL1       -0.2043
     44 F          60.8670   91.0875    5.0434 F       1  UNL1       -0.2043
     45 C          58.9816   91.7875    4.3683 C.3     1  UNL1        0.0666
     46 C          59.8381   92.9828    4.0720 C.3     1  UNL1        0.0056
     47 C          59.9786   93.4735    2.6614 C.3     1  UNL1        0.0002
     48 C          60.3511   92.5166    1.5680 C.3     1  UNL1        0.0000
     49 C          61.7696   92.0483    1.4323 C.3     1  UNL1        0.0000
     50 C          63.4536   91.0456    3.1379 C.3     1  UNL1        0.0000
     51 C          62.7317   92.2308    2.5686 C.3     1  UNL1        0.0000
@<TRIPOS>UNITY_ATOM_ATTR
28 1
charge -1
@<TRIPOS>BOND
     1    50    51    1
     2    51    49    1
     3    49    48    1
     4    48    47    1
     5    47    46    1
     6    46    45    1
     7    45    42    1
     8    42    43    1
     9    42    44    1
    10    42    41    1
    11    41    40    1
    12    40    39    1
    13    39    38    1
    14    38    37    1
    15    37    36    1
    16    36    34    1
    17    34    35    2
    18    35     1    1
    19     1     2    1
    20     2     3    1
    21     2     5    1
    22     5     7    1
    23     7    12    1
    24    12    13    1
    25    13    14   ar
    26    14    15   ar
    27    15    16   ar
    28    16    19    1
    29    19    20    1
    30    20    21    1
    31    21    22    1
    32    22    23    1
    33    16    17   ar
    34    17    18   ar
    35     7     8    1
    36     8     9    2
    37     8    10    1
    38    10    11    1
    39     1    24    1
    40    24    25    1
    41    24    30    1
    42    30    31    1
    43    31    32    1
    44    32    33    1
    45    24    27    1
    46    27    28   ar
    47    27    29   ar
    48    18    13   ar
    49     3     4    1
    50     5     6    1
    51    25    26    1
@<TRIPOS>MOLECULE
*****
 51 51 0 0 0
SMALL
GASTEIGER

@<TRIPOS>ATOM
      1 C          62.2297   85.9252   10.0450 C.3     1  UNL1        0.0939
      2 C          62.5685   87.1089   10.9018 C.3     1  UNL1        0.1759
      3 O          63.0053   86.9060   12.3224 O.3     1  UNL1       -0.3696
      4 H          63.0147   85.9575   12.5255 H       1  UNL1        0.2119
      5 N          62.4705   88.4954   10.3381 N.3     1  UNL1       -0.2671
      6 H          61.9139   88.4282    9.4860 H       1  UNL1        0.1259
      7 C          61.8726   89.5987   11.1599 C.3     1  UNL1        0.1604
      8 C          60.5260   90.1547   10.8027 C.2     1  UNL1        0.3319
      9 O          60.1820   90.4231    9.3676 O.2     1  UNL1       -0.2486
     10 O          59.5233   90.4423   11.8808 O.3     1  UNL1       -0.4435
     11 C          58.8336   89.3113   12.5845 C.3     1  UNL1        0.2556
     12 C          62.6212   90.1460   12.3389 C.3     1  UNL1        0.0535
     13 C          63.7181   91.1479   12.1315 C.ar    1  UNL1       -0.0201
     14 C          64.5944   91.5492   13.2808 C.ar    1  UNL1       -0.0011
     15 C          65.6913   92.5511   13.0735 C.ar    1  UNL1        0.0366
     16 C          65.9119   93.1517   11.7168 C.ar    1  UNL1        0.1385
     17 C          65.0355   92.7504   10.5675 C.ar    1  UNL1        0.0366
     18 C          63.9387   91.7485   10.7749 C.ar    1  UNL1       -0.0011
     19 O          67.0088   94.1537   11.5094 O.3     1  UNL1       -0.4755
     20 C          66.9629   95.0833   10.3332 C.3     1  UNL1        0.2054
     21 C          67.8948   94.8756    9.1763 C.3     1  UNL1        0.0473
     22 C          68.0237   93.5180    8.5514 C.3     1  UNL1        0.0038
     23 C          68.7982   92.4407    9.2513 C.3     1  UNL1        0.0001
     24 C          61.4799   86.1192    8.7604 C.3     1  UNL1        0.1294
     25 O          62.6664   85.6173    7.9920 O.3     1  UNL1       -0.3810
     26 H          62.9901   84.7972    8.3965 H       1  UNL1        0.2107
     27 C          60.2935   86.6212    9.5288 C.2     1  UNL1        0.0749
     28 O          60.3232   86.6373   11.0283 O.co2   1  UNL1       -0.5468
     29 O          59.0772   87.1069    8.7975 O.co2   1  UNL1       -0.5468
     30 C          60.7301   86.3133    7.4758 C.3     1  UNL1        0.0648
     31 C          60.3795   85.1283    6.6257 C.3     1  UNL1        0.1451
     32 O          61.4468   84.1572    6.2159 O.3     1  UNL1       -0.3510
     33 C          61.9778   84.1743    4.8132 C.3     1  UNL1        0.1741
     34 C          63.9330   83.9644    9.9829 C.2     1  UNL1       -0.0305
     35 C          62.6407   84.5475   10.4727 C.2     1  UNL1       -0.0245
     36 C          64.3441   82.5867   10.4107 C.3     1  UNL1        0.0257
     37 C          64.1835   82.1665   11.8416 C.3     1  UNL1        0.0047
     38 C          63.0776   81.2299   12.2287 C.3     1  UNL1        0.0003
     39 C          62.7149   81.0541   13.6735 C.3     1  UNL1        0.0002
     40 C          61.8543   82.0730   14.3600 C.3     1  UNL1        0.0056
     41 C          62.4738   83.0744   15.2892 C.3     1  UNL1        0.0666
     42 C          63.5782   83.9655   14.8033 C.3     1  UNL1        0.2639
     43 F          62.6205   84.6425   13.8682 F       1  UNL1       -0.2043
     44 F          64.5358   83.2885   15.7385 F       1  UNL1       -0.2043
     45 C          64.6826   84.8567   14.3174 C.3     1  UNL1        0.0666
     46 C          64.9886   86.1344   15.0410 C.3     1  UNL1        0.0056
     47 C          64.3875   87.4255   14.5701 C.3     1  UNL1        0.0002
     48 C          64.1926   88.5578   15.5344 C.3     1  UNL1        0.0000
     49 C          62.9714   88.6003   16.4043 C.3     1  UNL1        0.0000
     50 C          62.4865   86.3148   17.5406 C.3     1  UNL1        0.0000
     51 C          62.9009   87.7530   17.6400 C.3     1  UNL1        0.0000
@<TRIPOS>UNITY_ATOM_ATTR
28 1
charge -1
@<TRIPOS>BOND
     1    50    51    1
     2    51    49    1
     3    49    48    1
     4    48    47    1
     5    47    46    1
     6    46    45    1
     7    45    42    1
     8    42    43    1
     9    42    44    1
    10    42    41    1
    11    41    40    1
    12    40    39    1
    13    39    38    1
    14    38    37    1
    15    37    36    1
    16    36    34    1
    17    34    35    2
    18    35     1    1
    19     1     2    1
    20     2     3    1
    21     2     5    1
    22     5     7    1
    23     7    12    1
    24    12    13    1
    25    13    14   ar
    26    14    15   ar
    27    15    16   ar
    28    16    19    1
    29    19    20    1
    30    20    21    1
    31    21    22    1
    32    22    23    1
    33    16    17   ar
    34    17    18   ar
    35     7     8    1
    36     8     9    2
    37     8    10    1
    38    10    11    1
    39     1    24    1
    40    24    25    1
    41    24    30    1
    42    30    31    1
    43    31    32    1
    44    32    33    1
    45    24    27    1
    46    27    28   ar
    47    27    29   ar
    48    18    13   ar
    49     3     4    1
    50     5     6    1
    51    25    26    1
