@<TRIPOS>MOLECULE
*****
 43 46 0 0 0
SMALL
GASTEIGER

@<TRIPOS>ATOM
      1 C          61.0606   87.5890    9.5493 C.3     1  UNL1        0.0781
      2 C          62.3601   88.3214    9.7073 C.3     1  UNL1        0.0372
      3 C          62.6085   89.1526   10.9310 C.3     1  UNL1        0.0738
      4 N          61.5575   89.2514   11.9966 N.3     1  UNL1       -0.2726
      5 C          60.2580   88.5190   11.8386 C.3     1  UNL1        0.0738
      6 C          60.0096   87.6878   10.6149 C.3     1  UNL1        0.0372
      7 N          60.8122   86.7578    8.3256 N.am    1  UNL1       -0.2808
      8 C          61.8235   85.7374    7.8940 C.2     1  UNL1        0.2300
      9 O          61.5750   84.9063    6.6703 O.2     1  UNL1       -0.2745
     10 C          59.0469   88.3299    7.2478 C.3     1  UNL1        0.0233
     11 C          59.5525   86.9470    7.5335 C.3     1  UNL1        0.0934
     12 C          63.0831   85.5483    8.6861 C.3     1  UNL1        0.1116
     13 C          63.1337   84.5247    9.7815 C.ar    1  UNL1       -0.0130
     14 C          63.8742   83.2373    9.5714 C.ar    1  UNL1       -0.0025
     15 C          63.9248   82.2139   10.6668 C.ar    1  UNL1        0.0180
     16 C          63.2349   82.4778   11.9723 C.ar    1  UNL1        0.1057
     17 C          62.4943   83.7652   12.1824 C.ar    1  UNL1        0.0180
     18 C          62.4438   84.7887   11.0870 C.ar    1  UNL1       -0.0025
     19 S          63.2855   81.4543   13.0677 S.O2    1  UNL1        0.0104
     20 C          63.3361   80.4308   14.1631 C.3     1  UNL1        0.1816
     21 O          63.7766   82.5011   14.0231 O.2     1  UNL1       -0.1686
     22 O          62.7943   80.4074   12.1123 O.2     1  UNL1       -0.1686
     23 C          61.8060   90.0825   13.2203 C.3     1  UNL1        0.0724
     24 C          63.1047   90.8164   13.3775 C.3     1  UNL1        0.0217
     25 C          64.1395   90.3122   14.3392 C.3     1  UNL1        0.0239
     26 C          63.9618   88.9776   15.0005 C.ar    1  UNL1       -0.0180
     27 C          64.4188   87.7294   14.3054 C.ar    1  UNL1        0.0255
     28 C          64.2411   86.3948   14.9668 C.ar    1  UNL1        0.1421
     29 F          64.6980   85.1466   14.2717 F       1  UNL1       -0.2041
     30 C          63.6064   86.3085   16.3231 C.ar    1  UNL1        0.0592
     31 C          63.1494   87.5567   17.0182 C.ar    1  UNL1        0.1421
     32 F          62.5147   87.4703   18.3746 F       1  UNL1       -0.2041
     33 C          63.3271   88.8912   16.3569 C.ar    1  UNL1        0.0255
     34 C          65.3520   91.1425   14.6397 C.3     1  UNL1        0.0070
     35 C          65.4426   91.8972   15.9330 C.3     1  UNL1        0.0195
     36 C          66.6551   92.7275   16.2334 C.3     1  UNL1        0.0954
     37 N          67.7770   92.8033   15.2407 N.3     1  UNL1       -0.1594
     38 C          67.6865   92.0487   13.9476 C.3     1  UNL1        0.0954
     39 C          66.4740   91.2183   13.6470 C.3     1  UNL1        0.0195
     40 S          68.9895   93.6336   15.5412 S.O2    1  UNL1        0.0457
     41 C          70.2021   94.4640   15.8417 C.3     1  UNL1        0.1960
     42 O          69.7852   92.8277   14.5577 O.2     1  UNL1       -0.1572
     43 O          68.1939   94.4395   16.5248 O.2     1  UNL1       -0.1572
@<TRIPOS>BOND
     1    10    11    1
     2    11     7    1
     3     7     8   am
     4     8     9    2
     5     8    12    1
     6    12    13    1
     7    13    14   ar
     8    14    15   ar
     9    15    16   ar
    10    16    19    1
    11    19    20    1
    12    19    21    2
    13    19    22    2
    14    16    17   ar
    15    17    18   ar
    16     7     1    1
    17     1     2    1
    18     2     3    1
    19     3     4    1
    20     4    23    1
    21    23    24    1
    22    25    24    1
    23    25    26    1
    24    26    27   ar
    25    27    28   ar
    26    28    29    1
    27    28    30   ar
    28    30    31   ar
    29    31    32    1
    30    31    33   ar
    31    25    34    1
    32    34    35    1
    33    35    36    1
    34    36    37    1
    35    37    40    1
    36    40    41    1
    37    40    42    2
    38    40    43    2
    39    37    38    1
    40    38    39    1
    41     4     5    1
    42     5     6    1
    43    18    13   ar
    44     6     1    1
    45    33    26   ar
    46    39    34    1
@<TRIPOS>MOLECULE
*****
 43 46 0 0 0
SMALL
GASTEIGER

@<TRIPOS>ATOM
      1 C          63.2407   84.2014   14.2899 C.3     1  UNL1        0.0781
      2 C          62.3689   84.5144   15.4697 C.3     1  UNL1        0.0372
      3 C          62.5085   85.8295   16.1775 C.3     1  UNL1        0.0738
      4 N          63.5199   86.8316   15.7055 N.3     1  UNL1       -0.2726
      5 C          64.3918   86.5186   14.5256 C.3     1  UNL1        0.0738
      6 C          64.2521   85.2035   13.8178 C.3     1  UNL1        0.0372
      7 N          63.1010   82.8863   13.5821 N.am    1  UNL1       -0.2808
      8 C          63.4322   82.7811   12.1228 C.2     1  UNL1        0.2300
      9 O          63.2925   81.4660   11.4150 O.2     1  UNL1       -0.2745
     10 C          61.2333   81.1673   14.1356 C.3     1  UNL1        0.0233
     11 C          62.6303   81.6764   14.3334 C.3     1  UNL1        0.0934
     12 C          63.9029   83.9909   11.3714 C.3     1  UNL1        0.1116
     13 C          62.9359   84.7805   10.5397 C.ar    1  UNL1       -0.0130
     14 C          63.0687   84.7942    9.0457 C.ar    1  UNL1       -0.0025
     15 C          62.1018   85.5837    8.2141 C.ar    1  UNL1        0.0180
     16 C          61.0020   86.3596    8.8765 C.ar    1  UNL1        0.1057
     17 C          60.8693   86.3458   10.3705 C.ar    1  UNL1        0.0180
     18 C          61.8362   85.5563   11.2021 C.ar    1  UNL1       -0.0025
     19 S          60.0351   87.1491    8.0448 S.O2    1  UNL1        0.0104
     20 C          59.0682   87.9386    7.2131 C.3     1  UNL1        0.1816
     21 O          59.5564   85.8827    7.3991 O.2     1  UNL1       -0.1686
     22 O          60.5138   88.4156    8.6904 O.2     1  UNL1       -0.1686
     23 C          63.6596   88.1467   16.4133 C.3     1  UNL1        0.0724
     24 C          62.9171   89.3502   15.9131 C.3     1  UNL1        0.0217
     25 C          63.4849   90.1693   14.7920 C.3     1  UNL1        0.0239
     26 C          62.7858   90.2120   13.4656 C.ar    1  UNL1       -0.0180
     27 C          61.4387   89.5716   13.3069 C.ar    1  UNL1        0.0255
     28 C          60.7396   89.6144   11.9804 C.ar    1  UNL1        0.1421
     29 F          59.3925   88.9740   11.8216 F       1  UNL1       -0.2041
     30 C          61.3876   90.2975   10.8127 C.ar    1  UNL1        0.0592
     31 C          62.7347   90.9379   10.9715 C.ar    1  UNL1        0.1421
     32 F          63.3827   91.6210    9.8038 F       1  UNL1       -0.2041
     33 C          63.4338   90.8952   12.2979 C.ar    1  UNL1        0.0255
     34 C          64.7518   90.9456   14.9974 C.3     1  UNL1        0.0070
     35 C          65.9521   90.6618   14.1437 C.3     1  UNL1        0.0195
     36 C          67.2190   91.4382   14.3491 C.3     1  UNL1        0.0954
     37 N          67.2856   92.4984   15.4081 N.3     1  UNL1       -0.1594
     38 C          66.0854   92.7822   16.2618 C.3     1  UNL1        0.0954
     39 C          64.8184   92.0058   16.0565 C.3     1  UNL1        0.0195
     40 S          68.5525   93.2748   15.6135 S.O2    1  UNL1        0.0457
     41 C          69.8195   94.0511   15.8189 C.3     1  UNL1        0.1960
     42 O          67.9293   93.9833   16.7795 O.2     1  UNL1       -0.1572
     43 O          69.1757   92.5662   14.4475 O.2     1  UNL1       -0.1572
@<TRIPOS>BOND
     1    10    11    1
     2    11     7    1
     3     7     8   am
     4     8     9    2
     5     8    12    1
     6    12    13    1
     7    13    14   ar
     8    14    15   ar
     9    15    16   ar
    10    16    19    1
    11    19    20    1
    12    19    21    2
    13    19    22    2
    14    16    17   ar
    15    17    18   ar
    16     7     1    1
    17     1     2    1
    18     2     3    1
    19     3     4    1
    20     4    23    1
    21    23    24    1
    22    25    24    1
    23    25    26    1
    24    26    27   ar
    25    27    28   ar
    26    28    29    1
    27    28    30   ar
    28    30    31   ar
    29    31    32    1
    30    31    33   ar
    31    25    34    1
    32    34    35    1
    33    35    36    1
    34    36    37    1
    35    37    40    1
    36    40    41    1
    37    40    42    2
    38    40    43    2
    39    37    38    1
    40    38    39    1
    41     4     5    1
    42     5     6    1
    43    18    13   ar
    44     6     1    1
    45    33    26   ar
    46    39    34    1
@<TRIPOS>MOLECULE
*****
 43 46 0 0 0
SMALL
GASTEIGER

@<TRIPOS>ATOM
      1 C          63.2747   84.2099   14.2753 C.3     1  UNL1        0.0781
      2 C          64.2536   85.2375   13.7899 C.3     1  UNL1        0.0372
      3 C          64.3800   86.5498   14.5053 C.3     1  UNL1        0.0738
      4 N          63.5275   86.8345   15.7062 N.3     1  UNL1       -0.2726
      5 C          62.5485   85.8069   16.1917 C.3     1  UNL1        0.0738
      6 C          62.4221   84.4946   15.4762 C.3     1  UNL1        0.0372
      7 N          63.1482   82.8976   13.5598 N.am    1  UNL1       -0.2808
      8 C          63.4745   82.8056   12.0986 C.2     1  UNL1        0.2300
      9 O          63.3481   81.4933   11.3831 O.2     1  UNL1       -0.2745
     10 C          61.2743   81.2120   14.1897 C.3     1  UNL1        0.0233
     11 C          62.6955   81.6774   14.3055 C.3     1  UNL1        0.0934
     12 C          63.9272   84.0258   11.3529 C.3     1  UNL1        0.1116
     13 C          62.9494   84.8030   10.5224 C.ar    1  UNL1       -0.0130
     14 C          61.8476   85.5742   11.1867 C.ar    1  UNL1       -0.0025
     15 C          60.8698   86.3514   10.3562 C.ar    1  UNL1        0.0180
     16 C          60.9937   86.3575    8.8614 C.ar    1  UNL1        0.1057
     17 C          62.0955   85.5863    8.1970 C.ar    1  UNL1        0.0180
     18 C          63.0733   84.8091    9.0275 C.ar    1  UNL1       -0.0025
     19 S          60.0158   87.1347    8.0309 S.O2    1  UNL1        0.0104
     20 C          59.0380   87.9120    7.2004 C.3     1  UNL1        0.1816
     21 O          60.4715   88.4058    8.6840 O.2     1  UNL1       -0.1686
     22 O          59.5602   85.8636    7.3777 O.2     1  UNL1       -0.1686
     23 C          63.6540   88.1468   16.4217 C.3     1  UNL1        0.0724
     24 C          62.9134   89.3501   15.9180 C.3     1  UNL1        0.0217
     25 C          63.4818   90.1643   14.7938 C.3     1  UNL1        0.0239
     26 C          62.7814   90.2045   13.4680 C.ar    1  UNL1       -0.0180
     27 C          63.4273   90.8872   12.2989 C.ar    1  UNL1        0.0255
     28 C          62.7267   90.9273   10.9731 C.ar    1  UNL1        0.1421
     29 F          63.3726   91.6100    9.8039 F       1  UNL1       -0.2041
     30 C          61.3804   90.2849   10.8164 C.ar    1  UNL1        0.0592
     31 C          60.7345   89.6023   11.9855 C.ar    1  UNL1        0.1421
     32 F          59.3881   88.9598   11.8288 F       1  UNL1       -0.2041
     33 C          61.4350   89.5621   13.3113 C.ar    1  UNL1        0.0255
     34 C          64.7508   90.9384   14.9953 C.3     1  UNL1        0.0070
     35 C          64.8161   92.0125   16.0403 C.3     1  UNL1        0.0195
     36 C          66.0850   92.7866   16.2418 C.3     1  UNL1        0.0954
     37 N          67.2886   92.4865   15.3985 N.3     1  UNL1       -0.1594
     38 C          67.2233   91.4124   14.3535 C.3     1  UNL1        0.0954
     39 C          65.9543   90.6383   14.1519 C.3     1  UNL1        0.0195
     40 S          68.5575   93.2606   15.6000 S.O2    1  UNL1        0.0457
     41 C          69.8265   94.0346   15.8015 C.3     1  UNL1        0.1960
     42 O          67.9441   93.9597   16.7768 O.2     1  UNL1       -0.1572
     43 O          69.1710   92.5614   14.4232 O.2     1  UNL1       -0.1572
@<TRIPOS>BOND
     1    10    11    1
     2    11     7    1
     3     7     8   am
     4     8     9    2
     5     8    12    1
     6    12    13    1
     7    13    14   ar
     8    14    15   ar
     9    15    16   ar
    10    16    19    1
    11    19    20    1
    12    19    21    2
    13    19    22    2
    14    16    17   ar
    15    17    18   ar
    16     7     1    1
    17     1     2    1
    18     2     3    1
    19     3     4    1
    20     4    23    1
    21    23    24    1
    22    25    24    1
    23    25    26    1
    24    26    27   ar
    25    27    28   ar
    26    28    29    1
    27    28    30   ar
    28    30    31   ar
    29    31    32    1
    30    31    33   ar
    31    25    34    1
    32    34    35    1
    33    35    36    1
    34    36    37    1
    35    37    40    1
    36    40    41    1
    37    40    42    2
    38    40    43    2
    39    37    38    1
    40    38    39    1
    41     4     5    1
    42     5     6    1
    43    18    13   ar
    44     6     1    1
    45    33    26   ar
    46    39    34    1
@<TRIPOS>MOLECULE
*****
 43 46 0 0 0
SMALL
GASTEIGER

@<TRIPOS>ATOM
      1 C          60.9181   87.8039   10.6251 C.3     1  UNL1        0.0781
      2 C          62.0618   87.3996   11.5074 C.3     1  UNL1        0.0372
      3 C          62.9282   86.2360   11.1263 C.3     1  UNL1        0.0738
      4 N          62.6510   85.4766    9.8628 N.3     1  UNL1       -0.2726
      5 C          61.5073   85.8809    8.9804 C.3     1  UNL1        0.0738
      6 C          60.6408   87.0445    9.3615 C.3     1  UNL1        0.0372
      7 N          60.0517   88.9675   11.0063 N.am    1  UNL1       -0.2808
      8 C          60.5402   90.3691   10.7894 C.2     1  UNL1        0.2300
      9 O          59.6737   91.5327   11.1705 O.2     1  UNL1       -0.2745
     10 C          58.4762   88.9470   13.0720 C.3     1  UNL1        0.0233
     11 C          58.6968   88.7296   11.6043 C.3     1  UNL1        0.0934
     12 C          61.8950   90.6070   10.1913 C.3     1  UNL1        0.1116
     13 C          63.0230   91.0863   11.0562 C.ar    1  UNL1       -0.0130
     14 C          64.0706   91.9962   10.4866 C.ar    1  UNL1       -0.0025
     15 C          65.1985   92.4754   11.3515 C.ar    1  UNL1        0.0180
     16 C          65.2788   92.0447   12.7861 C.ar    1  UNL1        0.1057
     17 C          64.2312   91.1348   13.3558 C.ar    1  UNL1        0.0180
     18 C          63.1033   90.6556   12.4908 C.ar    1  UNL1       -0.0025
     19 S          66.4068   92.5239   13.6510 S.O2    1  UNL1        0.0104
     20 C          67.5347   93.0032   14.5159 C.3     1  UNL1        0.1816
     21 O          65.5060   92.4810   14.8495 O.2     1  UNL1       -0.1686
     22 O          67.3077   92.5669   12.4524 O.2     1  UNL1       -0.1686
     23 C          63.5174   84.3130    9.4816 C.3     1  UNL1        0.0724
     24 C          64.3958   83.6635   10.5095 C.3     1  UNL1        0.0217
     25 C          63.7845   83.0097   11.7132 C.3     1  UNL1        0.0239
     26 C          63.3650   81.5709   11.6532 C.ar    1  UNL1       -0.0180
     27 C          63.0015   80.8425   12.9131 C.ar    1  UNL1        0.0255
     28 C          62.5820   79.4035   12.8531 C.ar    1  UNL1        0.1421
     29 F          62.2185   78.6751   14.1130 F       1  UNL1       -0.2041
     30 C          62.5259   78.6931   11.5333 C.ar    1  UNL1        0.0592
     31 C          62.8894   79.4215   10.2734 C.ar    1  UNL1        0.1421
     32 F          62.8333   78.7109    8.9535 F       1  UNL1       -0.2041
     33 C          63.3089   80.8603   10.3333 C.ar    1  UNL1        0.0255
     34 C          63.5927   83.7948   12.9769 C.3     1  UNL1        0.0070
     35 C          62.2600   83.7940   13.6654 C.3     1  UNL1        0.0195
     36 C          62.0683   84.5791   14.9290 C.3     1  UNL1        0.0954
     37 N          63.2092   85.3649   15.5042 N.3     1  UNL1       -0.1594
     38 C          64.5418   85.3657   14.8158 C.3     1  UNL1        0.0954
     39 C          64.7336   84.5806   13.5520 C.3     1  UNL1        0.0195
     40 S          63.0174   86.1500   16.7679 S.O2    1  UNL1        0.0457
     41 C          62.8257   86.9351   18.0316 C.3     1  UNL1        0.1960
     42 O          62.3611   84.9619   17.4064 O.2     1  UNL1       -0.1572
     43 O          63.6738   87.3380   16.1294 O.2     1  UNL1       -0.1572
@<TRIPOS>BOND
     1    10    11    1
     2    11     7    1
     3     7     8   am
     4     8     9    2
     5     8    12    1
     6    12    13    1
     7    13    14   ar
     8    14    15   ar
     9    15    16   ar
    10    16    19    1
    11    19    20    1
    12    19    21    2
    13    19    22    2
    14    16    17   ar
    15    17    18   ar
    16     7     1    1
    17     1     2    1
    18     2     3    1
    19     3     4    1
    20     4    23    1
    21    23    24    1
    22    25    24    1
    23    25    26    1
    24    26    27   ar
    25    27    28   ar
    26    28    29    1
    27    28    30   ar
    28    30    31   ar
    29    31    32    1
    30    31    33   ar
    31    25    34    1
    32    34    35    1
    33    35    36    1
    34    36    37    1
    35    37    40    1
    36    40    41    1
    37    40    42    2
    38    40    43    2
    39    37    38    1
    40    38    39    1
    41     4     5    1
    42     5     6    1
    43    18    13   ar
    44     6     1    1
    45    33    26   ar
    46    39    34    1
@<TRIPOS>MOLECULE
*****
 43 46 0 0 0
SMALL
GASTEIGER

@<TRIPOS>ATOM
      1 C          64.9857   91.1248   14.3647 C.3     1  UNL1        0.0781
      2 C          64.1674   91.7035   13.2487 C.3     1  UNL1        0.0372
      3 C          63.2768   90.8142   12.4325 C.3     1  UNL1        0.0738
      4 N          63.2046   89.3463   12.7323 N.3     1  UNL1       -0.2726
      5 C          64.0229   88.7675   13.8483 C.3     1  UNL1        0.0738
      6 C          64.9135   89.6568   14.6645 C.3     1  UNL1        0.0372
      7 N          65.8763   92.0140   15.1809 N.am    1  UNL1       -0.2808
      8 C          67.1744   92.5030   14.6100 C.2     1  UNL1        0.2300
      9 O          68.0650   93.3922   15.4262 O.2     1  UNL1       -0.2745
     10 C          64.0820   92.1181   17.0569 C.3     1  UNL1        0.0233
     11 C          65.4687   92.4143   16.5678 C.3     1  UNL1        0.0934
     12 C          67.5819   92.1027   13.2231 C.3     1  UNL1        0.1116
     13 C          67.2946   93.0120   12.0651 C.ar    1  UNL1       -0.0130
     14 C          66.4689   94.2475   12.2686 C.ar    1  UNL1       -0.0025
     15 C          66.1816   95.1567   11.1107 C.ar    1  UNL1        0.0180
     16 C          66.7201   94.8303    9.7493 C.ar    1  UNL1        0.1057
     17 C          67.5459   93.5947    9.5458 C.ar    1  UNL1        0.0180
     18 C          67.8331   92.6856   10.7037 C.ar    1  UNL1       -0.0025
     19 S          66.4328   95.7395    8.5913 S.O2    1  UNL1        0.0104
     20 C          66.1455   96.6487    7.4334 C.3     1  UNL1        0.1816
     21 O          65.6326   96.6333    9.4917 O.2     1  UNL1       -0.1686
     22 O          67.2330   94.8457    7.6909 O.2     1  UNL1       -0.1686
     23 C          62.3140   88.4571   11.9161 C.3     1  UNL1        0.0724
     24 C          62.8716   87.7149   10.7379 C.3     1  UNL1        0.0217
     25 C          62.2677   86.4066   10.3213 C.3     1  UNL1        0.0239
     26 C          61.3820   86.3405    9.1125 C.ar    1  UNL1       -0.0180
     27 C          60.2397   87.3016    8.9662 C.ar    1  UNL1        0.0255
     28 C          59.3540   87.2354    7.7574 C.ar    1  UNL1        0.1421
     29 F          58.2117   88.1964    7.6110 F       1  UNL1       -0.2041
     30 C          59.6107   86.2081    6.6949 C.ar    1  UNL1        0.0592
     31 C          60.7530   85.2470    6.8412 C.ar    1  UNL1        0.1421
     32 F          61.0096   84.2198    5.7787 F       1  UNL1       -0.2041
     33 C          61.6386   85.3132    8.0500 C.ar    1  UNL1        0.0255
     34 C          62.5494   85.1645   11.1135 C.3     1  UNL1        0.0070
     35 C          62.1917   85.1060   12.5691 C.3     1  UNL1        0.0195
     36 C          62.4734   83.8638   13.3613 C.3     1  UNL1        0.0954
     37 N          63.1128   82.6801   12.6980 N.3     1  UNL1       -0.1594
     38 C          63.4705   82.7385   11.2425 C.3     1  UNL1        0.0954
     39 C          63.1888   83.9808   10.4502 C.3     1  UNL1        0.0195
     40 S          63.3945   81.4379   13.4902 S.O2    1  UNL1        0.0457
     41 C          63.6762   80.1957   14.2824 C.3     1  UNL1        0.1960
     42 O          62.9793   80.5971   12.3195 O.2     1  UNL1       -0.1572
     43 O          63.8097   82.2787   14.6609 O.2     1  UNL1       -0.1572
@<TRIPOS>BOND
     1    10    11    1
     2    11     7    1
     3     7     8   am
     4     8     9    2
     5     8    12    1
     6    12    13    1
     7    13    14   ar
     8    14    15   ar
     9    15    16   ar
    10    16    19    1
    11    19    20    1
    12    19    21    2
    13    19    22    2
    14    16    17   ar
    15    17    18   ar
    16     7     1    1
    17     1     2    1
    18     2     3    1
    19     3     4    1
    20     4    23    1
    21    23    24    1
    22    25    24    1
    23    25    26    1
    24    26    27   ar
    25    27    28   ar
    26    28    29    1
    27    28    30   ar
    28    30    31   ar
    29    31    32    1
    30    31    33   ar
    31    25    34    1
    32    34    35    1
    33    35    36    1
    34    36    37    1
    35    37    40    1
    36    40    41    1
    37    40    42    2
    38    40    43    2
    39    37    38    1
    40    38    39    1
    41     4     5    1
    42     5     6    1
    43    18    13   ar
    44     6     1    1
    45    33    26   ar
    46    39    34    1
@<TRIPOS>MOLECULE
*****
 43 46 0 0 0
SMALL
GASTEIGER

@<TRIPOS>ATOM
      1 C          61.3677   86.9465    9.4848 C.3     1  UNL1        0.0781
      2 C          61.3624   86.3012   10.8389 C.3     1  UNL1        0.0372
      3 C          62.2488   85.1222   11.1113 C.3     1  UNL1        0.0738
      4 N          63.1405   84.5885   10.0296 N.3     1  UNL1       -0.2726
      5 C          63.1458   85.2337    8.6755 C.3     1  UNL1        0.0738
      6 C          62.2594   86.4128    8.4031 C.3     1  UNL1        0.0372
      7 N          60.4813   88.1255    9.2124 N.am    1  UNL1       -0.2808
      8 C          60.3523   89.2183   10.2319 C.2     1  UNL1        0.2300
      9 O          59.4659   90.3973    9.9595 O.2     1  UNL1       -0.2745
     10 C          58.7946   87.1044    7.5206 C.3     1  UNL1        0.0233
     11 C          59.7240   88.2118    7.9205 C.3     1  UNL1        0.0934
     12 C          61.1097   89.1320   11.5237 C.3     1  UNL1        0.1116
     13 C          62.3030   90.0113   11.7537 C.ar    1  UNL1       -0.0130
     14 C          62.9419   90.0690   13.1096 C.ar    1  UNL1       -0.0025
     15 C          64.1352   90.9483   13.3395 C.ar    1  UNL1        0.0180
     16 C          64.6896   91.7698   12.2136 C.ar    1  UNL1        0.1057
     17 C          64.0507   91.7120   10.8577 C.ar    1  UNL1        0.0180
     18 C          62.8574   90.8328   10.6278 C.ar    1  UNL1       -0.0025
     19 S          65.8830   92.6491   12.4436 S.O2    1  UNL1        0.0104
     20 C          67.0762   93.5284   12.6736 C.3     1  UNL1        0.1816
     21 O          65.5235   92.7571   13.8958 O.2     1  UNL1       -0.1686
     22 O          66.2425   92.5411   10.9913 O.2     1  UNL1       -0.1686
     23 C          64.0269   83.4094   10.3021 C.3     1  UNL1        0.0724
     24 C          64.5691   83.1817   11.6819 C.3     1  UNL1        0.0217
     25 C          63.6298   82.9471   12.8276 C.3     1  UNL1        0.0239
     26 C          62.8485   81.6692   12.9073 C.ar    1  UNL1       -0.0180
     27 C          61.6766   81.5634   13.8377 C.ar    1  UNL1        0.0255
     28 C          60.8953   80.2854   13.9173 C.ar    1  UNL1        0.1421
     29 F          59.7234   80.1795   14.8477 F       1  UNL1       -0.2041
     30 C          61.2858   79.1133   13.0666 C.ar    1  UNL1        0.0592
     31 C          62.4576   79.2192   12.1363 C.ar    1  UNL1        0.1421
     32 F          62.8481   78.0470   11.2855 F       1  UNL1       -0.2041
     33 C          63.2389   80.4971   12.0566 C.ar    1  UNL1        0.0255
     34 C          63.4718   83.9905   13.8937 C.3     1  UNL1        0.0070
     35 C          64.4043   85.1646   13.9381 C.3     1  UNL1        0.0195
     36 C          64.2463   86.2080   15.0041 C.3     1  UNL1        0.0954
     37 N          63.1559   86.0772   16.0258 N.3     1  UNL1       -0.1594
     38 C          62.2234   84.9031   15.9814 C.3     1  UNL1        0.0954
     39 C          62.3814   83.8597   14.9153 C.3     1  UNL1        0.0195
     40 S          62.9979   87.1205   17.0918 S.O2    1  UNL1        0.0457
     41 C          62.8399   88.1639   18.1579 C.3     1  UNL1        0.1960
     42 O          63.5653   88.1540   16.1644 O.2     1  UNL1       -0.1572
     43 O          62.4305   86.0871   18.0191 O.2     1  UNL1       -0.1572
@<TRIPOS>BOND
     1    10    11    1
     2    11     7    1
     3     7     8   am
     4     8     9    2
     5     8    12    1
     6    12    13    1
     7    13    14   ar
     8    14    15   ar
     9    15    16   ar
    10    16    19    1
    11    19    20    1
    12    19    21    2
    13    19    22    2
    14    16    17   ar
    15    17    18   ar
    16     7     1    1
    17     1     2    1
    18     2     3    1
    19     3     4    1
    20     4    23    1
    21    23    24    1
    22    25    24    1
    23    25    26    1
    24    26    27   ar
    25    27    28   ar
    26    28    29    1
    27    28    30   ar
    28    30    31   ar
    29    31    32    1
    30    31    33   ar
    31    25    34    1
    32    34    35    1
    33    35    36    1
    34    36    37    1
    35    37    40    1
    36    40    41    1
    37    40    42    2
    38    40    43    2
    39    37    38    1
    40    38    39    1
    41     4     5    1
    42     5     6    1
    43    18    13   ar
    44     6     1    1
    45    33    26   ar
    46    39    34    1
@<TRIPOS>MOLECULE
*****
 43 46 0 0 0
SMALL
GASTEIGER

@<TRIPOS>ATOM
      1 C          63.5010   88.2071   15.4749 C.3     1  UNL1        0.0781
      2 C          63.5439   87.0453   16.4226 C.3     1  UNL1        0.0372
      3 C          63.9763   85.6945   15.9342 C.3     1  UNL1        0.0738
      4 N          64.3659   85.5057   14.4981 N.3     1  UNL1       -0.2726
      5 C          64.3231   86.6676   13.5503 C.3     1  UNL1        0.0738
      6 C          63.8906   88.0183   14.0387 C.3     1  UNL1        0.0372
      7 N          63.0685   89.5578   15.9633 N.am    1  UNL1       -0.2808
      8 C          64.0000   90.7285   15.8538 C.2     1  UNL1        0.2300
      9 O          63.5675   92.0793   16.3422 O.2     1  UNL1       -0.2745
     10 C          60.5171   89.0690   15.9350 C.3     1  UNL1        0.0233
     11 C          61.7047   89.7379   16.5612 C.3     1  UNL1        0.0934
     12 C          65.3638   90.5485   15.2560 C.3     1  UNL1        0.1116
     13 C          65.7421   91.2964   14.0119 C.ar    1  UNL1       -0.0130
     14 C          67.1598   91.7410   13.8060 C.ar    1  UNL1       -0.0025
     15 C          67.5380   92.4889   12.5620 C.ar    1  UNL1        0.0180
     16 C          66.4986   92.7922   11.5240 C.ar    1  UNL1        0.1057
     17 C          65.0809   92.3476   11.7299 C.ar    1  UNL1        0.0180
     18 C          64.7027   91.5997   12.9739 C.ar    1  UNL1       -0.0025
     19 S          66.8769   93.5402   10.2799 S.O2    1  UNL1        0.0104
     20 C          67.2551   94.2881    9.0360 C.3     1  UNL1        0.1816
     21 O          65.5718   94.2781   10.3268 O.2     1  UNL1       -0.1686
     22 O          68.1819   92.8022   10.2331 O.2     1  UNL1       -0.1686
     23 C          64.7984   84.1550   14.0097 C.3     1  UNL1        0.0724
     24 C          64.9317   83.8968   12.5382 C.3     1  UNL1        0.0217
     25 C          63.7317   83.4874   11.7368 C.3     1  UNL1        0.0239
     26 C          63.3283   82.0440   11.6744 C.ar    1  UNL1       -0.0180
     27 C          62.8373   81.3485   12.9094 C.ar    1  UNL1        0.0255
     28 C          62.4339   79.9050   12.8470 C.ar    1  UNL1        0.1421
     29 F          61.9429   79.2095   14.0819 F       1  UNL1       -0.2041
     30 C          62.5216   79.1572   11.5497 C.ar    1  UNL1        0.0592
     31 C          63.0126   79.8527   10.3147 C.ar    1  UNL1        0.1421
     32 F          63.1002   79.1048    9.0174 F       1  UNL1       -0.2041
     33 C          63.4159   81.2961   10.3771 C.ar    1  UNL1        0.0255
     34 C          62.9350   84.5213   10.9977 C.3     1  UNL1        0.0070
     35 C          63.1417   84.7158    9.5248 C.3     1  UNL1        0.0195
     36 C          62.3450   85.7498    8.7857 C.3     1  UNL1        0.0954
     37 N          61.3415   86.5892    9.5195 N.3     1  UNL1       -0.1594
     38 C          61.1348   86.3947   10.9924 C.3     1  UNL1        0.0954
     39 C          61.9315   85.3607   11.7315 C.3     1  UNL1        0.0195
     40 S          60.5448   87.6231    8.7805 S.O2    1  UNL1        0.0457
     41 C          59.7481   88.6570    8.0414 C.3     1  UNL1        0.1960
     42 O          61.2481   88.7083    9.5405 O.2     1  UNL1       -0.1572
     43 O          59.8416   86.5379    8.0204 O.2     1  UNL1       -0.1572
@<TRIPOS>BOND
     1    10    11    1
     2    11     7    1
     3     7     8   am
     4     8     9    2
     5     8    12    1
     6    12    13    1
     7    13    14   ar
     8    14    15   ar
     9    15    16   ar
    10    16    19    1
    11    19    20    1
    12    19    21    2
    13    19    22    2
    14    16    17   ar
    15    17    18   ar
    16     7     1    1
    17     1     2    1
    18     2     3    1
    19     3     4    1
    20     4    23    1
    21    23    24    1
    22    25    24    1
    23    25    26    1
    24    26    27   ar
    25    27    28   ar
    26    28    29    1
    27    28    30   ar
    28    30    31   ar
    29    31    32    1
    30    31    33   ar
    31    25    34    1
    32    34    35    1
    33    35    36    1
    34    36    37    1
    35    37    40    1
    36    40    41    1
    37    40    42    2
    38    40    43    2
    39    37    38    1
    40    38    39    1
    41     4     5    1
    42     5     6    1
    43    18    13   ar
    44     6     1    1
    45    33    26   ar
    46    39    34    1
@<TRIPOS>MOLECULE
*****
 43 46 0 0 0
SMALL
GASTEIGER

@<TRIPOS>ATOM
      1 C          59.3971   89.5378    6.6462 C.3     1  UNL1        0.0781
      2 C          60.6558   89.9474    5.9407 C.3     1  UNL1        0.0372
      3 C          60.6056   90.9863    4.8599 C.3     1  UNL1        0.0738
      4 N          59.2967   91.6157    4.4847 N.3     1  UNL1       -0.2726
      5 C          58.0380   91.2060    5.1903 C.3     1  UNL1        0.0738
      6 C          58.0881   90.1671    6.2711 C.3     1  UNL1        0.0372
      7 N          59.4473   88.4988    7.7270 N.am    1  UNL1       -0.2808
      8 C          60.0232   88.8402    9.0694 C.2     1  UNL1        0.2300
      9 O          60.0733   87.8013   10.1502 O.2     1  UNL1       -0.2745
     10 C          59.8564   85.9456    7.4758 C.3     1  UNL1        0.0233
     11 C          58.9216   87.1185    7.4655 C.3     1  UNL1        0.0934
     12 C          60.5489   90.2205    9.3309 C.3     1  UNL1        0.1116
     13 C          61.6023   90.4362   10.3768 C.ar    1  UNL1       -0.0130
     14 C          62.8630   91.1717   10.0309 C.ar    1  UNL1       -0.0025
     15 C          63.9164   91.3873   11.0768 C.ar    1  UNL1        0.0180
     16 C          63.7091   90.8674   12.4684 C.ar    1  UNL1        0.1057
     17 C          62.4484   90.1319   12.8143 C.ar    1  UNL1        0.0180
     18 C          61.3950   89.9163   11.7685 C.ar    1  UNL1       -0.0025
     19 S          64.7626   91.0831   13.5143 S.O2    1  UNL1        0.0104
     20 C          65.8160   91.2987   14.5601 C.3     1  UNL1        0.1816
     21 O          64.5060   89.7082   14.0563 O.2     1  UNL1       -0.1686
     22 O          65.0192   92.4580   12.9724 O.2     1  UNL1       -0.1686
     23 C          59.2466   92.6546    3.4039 C.3     1  UNL1        0.0724
     24 C          60.4964   93.3803    3.0026 C.3     1  UNL1        0.0217
     25 C          60.7162   93.7586    1.5678 C.3     1  UNL1        0.0239
     26 C          62.1110   93.9095    1.0372 C.ar    1  UNL1       -0.0180
     27 C          62.4069   93.5857   -0.3973 C.ar    1  UNL1        0.0255
     28 C          63.8018   93.7367   -0.9279 C.ar    1  UNL1        0.1421
     29 F          64.0977   93.4129   -2.3623 F       1  UNL1       -0.2041
     30 C          64.9008   94.2115   -0.0241 C.ar    1  UNL1        0.0592
     31 C          64.6049   94.5354    1.4103 C.ar    1  UNL1        0.1421
     32 F          65.7039   95.0102    2.3141 F       1  UNL1       -0.2041
     33 C          63.2100   94.3844    1.9410 C.ar    1  UNL1        0.0255
     34 C          59.5411   93.9858    0.6637 C.3     1  UNL1        0.0070
     35 C          59.1549   95.3814    0.2722 C.3     1  UNL1        0.0195
     36 C          57.9798   95.6087   -0.6320 C.3     1  UNL1        0.0954
     37 N          57.1910   94.4404   -1.1447 N.3     1  UNL1       -0.1594
     38 C          57.5772   93.0449   -0.7533 C.3     1  UNL1        0.0954
     39 C          58.7523   92.8175    0.1509 C.3     1  UNL1        0.0195
     40 S          56.0159   94.6677   -2.0488 S.O2    1  UNL1        0.0457
     41 C          54.8408   94.8949   -2.9530 C.3     1  UNL1        0.1960
     42 O          56.6540   95.9244   -2.5622 O.2     1  UNL1       -0.1572
     43 O          55.3778   93.4110   -1.5355 O.2     1  UNL1       -0.1572
@<TRIPOS>BOND
     1    10    11    1
     2    11     7    1
     3     7     8   am
     4     8     9    2
     5     8    12    1
     6    12    13    1
     7    13    14   ar
     8    14    15   ar
     9    15    16   ar
    10    16    19    1
    11    19    20    1
    12    19    21    2
    13    19    22    2
    14    16    17   ar
    15    17    18   ar
    16     7     1    1
    17     1     2    1
    18     2     3    1
    19     3     4    1
    20     4    23    1
    21    23    24    1
    22    25    24    1
    23    25    26    1
    24    26    27   ar
    25    27    28   ar
    26    28    29    1
    27    28    30   ar
    28    30    31   ar
    29    31    32    1
    30    31    33   ar
    31    25    34    1
    32    34    35    1
    33    35    36    1
    34    36    37    1
    35    37    40    1
    36    40    41    1
    37    40    42    2
    38    40    43    2
    39    37    38    1
    40    38    39    1
    41     4     5    1
    42     5     6    1
    43    18    13   ar
    44     6     1    1
    45    33    26   ar
    46    39    34    1
