@<TRIPOS>MOLECULE
*****
 32 35 0 0 0
SMALL
GASTEIGER

@<TRIPOS>ATOM
      1 C          61.1510   88.3339    9.7751 C.ar    1  UNL1        0.0951
      2 C          60.2268   88.1050    8.6161 C.ar    1  UNL1        0.1454
      3 F          59.2019   89.1401    8.2582 F       1  UNL1       -0.2040
      4 C          60.3275   86.8409    7.8148 C.ar    1  UNL1        0.0312
      5 C          61.3524   85.8057    8.1727 C.ar    1  UNL1        0.0204
      6 C          62.2766   86.0347    9.3318 C.ar    1  UNL1        0.0924
      7 C          62.1759   87.2988   10.1330 C.ar    1  UNL1        0.1598
      8 F          63.1001   87.5277   11.2921 F       1  UNL1       -0.2026
      9 C          61.0503   89.5980   10.5763 C.2     1  UNL1        0.2036
     10 O          59.7171   90.0582   11.0869 O.2     1  UNL1       -0.2863
     11 C          63.6754   90.0407   14.6543 C.2     1  UNL1        0.0974
     12 C          64.8466   90.9642   14.4953 C.2     1  UNL1        0.2421
     13 N          65.0996   91.6347   13.1775 N.2     1  UNL1       -0.0304
     14 C          64.1814   91.3817   12.0188 C.2     1  UNL1        0.3721
     15 N          64.1780   91.8962   10.6098 N.2     1  UNL1       -0.0307
     16 C          63.0047   91.2907    9.8979 C.2     1  UNL1        0.2390
     17 C          62.2829   90.4019   10.8670 C.2     1  UNL1        0.0896
     18 C          63.0102   90.4581   12.1777 C.2     1  UNL1        0.0782
     19 C          62.7572   89.7876   13.4955 C.3     1  UNL1        0.0751
     20 N          63.1694   88.6997   17.2897 N.1     1  UNL1       -0.1910
     21 C          63.4224   89.3702   15.9720 C.1     1  UNL1        0.1003
     22 N          63.3015   84.9995    9.6896 N.pl3   1  UNL1       -0.2128
     23 H          64.1418   84.9421    9.1800 H       1  UNL1        0.1738
     24 S          63.0459   84.0518   10.8239 S.O2    1  UNL1        0.0736
     25 O          61.8280   84.8389   11.2072 O.2     1  UNL1       -0.1499
     26 O          64.2639   83.2647   10.4406 O.2     1  UNL1       -0.1499
     27 C          62.7904   83.1041   11.9582 C.ar    1  UNL1        0.1252
     28 C          62.7578   81.6256   11.7072 C.ar    1  UNL1        0.0202
     29 C          62.5023   80.6778   12.8414 C.ar    1  UNL1        0.0014
     30 C          62.2795   81.2085   14.2266 C.ar    1  UNL1        0.0001
     31 C          62.3122   82.6870   14.4776 C.ar    1  UNL1        0.0014
     32 C          62.5677   83.6348   13.3434 C.ar    1  UNL1        0.0202
@<TRIPOS>BOND
     1    20    21    3
     2    21    11    1
     3    11    12    2
     4    12    13    1
     5    13    14    2
     6    14    15    1
     7    15    16    2
     8    16    17    1
     9    17     9    1
    10     9    10    2
    11     9     1    1
    12     1     2   ar
    13     2     3    1
    14     2     4   ar
    15     4     5   ar
    16     5     6   ar
    17     6    22    1
    18    22    24    1
    19    24    25    2
    20    24    26    2
    21    24    27    1
    22    27    28   ar
    23    28    29   ar
    24    29    30   ar
    25    30    31   ar
    26    31    32   ar
    27     6     7   ar
    28     7     8    1
    29    17    18    2
    30    18    19    1
    31    19    11    1
    32    18    14    1
    33     7     1   ar
    34    32    27   ar
    35    22    23    1
@<TRIPOS>MOLECULE
*****
 32 35 0 0 0
SMALL
GASTEIGER

@<TRIPOS>ATOM
      1 C          63.9916   84.6200   13.7845 C.ar    1  UNL1        0.0951
      2 C          63.8612   83.1338   13.9397 C.ar    1  UNL1        0.1454
      3 F          64.4916   82.4442   15.1132 F       1  UNL1       -0.2040
      4 C          63.1005   82.3372   12.9215 C.ar    1  UNL1        0.0312
      5 C          62.4701   83.0268   11.7480 C.ar    1  UNL1        0.0204
      6 C          62.6005   84.5131   11.5928 C.ar    1  UNL1        0.0924
      7 C          63.3612   85.3097   12.6110 C.ar    1  UNL1        0.1598
      8 F          63.4915   86.7959   12.4557 F       1  UNL1       -0.2026
      9 C          64.7523   85.4166   14.8026 C.2     1  UNL1        0.2036
     10 O          66.2371   85.2469   14.9310 O.2     1  UNL1       -0.2863
     11 C          64.4932   90.2781   14.6803 C.2     1  UNL1        0.0974
     12 C          63.6437   90.8437   15.7796 C.2     1  UNL1        0.2421
     13 N          62.9841   89.9256   16.7656 N.2     1  UNL1       -0.0304
     14 C          63.1740   88.4421   16.6523 C.2     1  UNL1        0.3721
     15 N          62.6537   87.2981   17.4712 N.2     1  UNL1       -0.0307
     16 C          63.1816   86.0255   16.8780 C.2     1  UNL1        0.2390
     17 C          64.0282   86.3830   15.6925 C.2     1  UNL1        0.0896
     18 C          64.0235   87.8765   15.5530 C.2     1  UNL1        0.0782
     19 C          64.6831   88.7946   14.5670 C.3     1  UNL1        0.0751
     20 N          65.8123   92.1142   12.7083 N.1     1  UNL1       -0.1910
     21 C          65.1527   91.1962   13.6943 C.1     1  UNL1        0.1003
     22 N          61.9701   85.2027   10.4193 N.pl3   1  UNL1       -0.2128
     23 H          61.7631   84.6939    9.6023 H       1  UNL1        0.1738
     24 S          61.6550   86.6674   10.4907 S.O2    1  UNL1        0.0736
     25 O          60.7816   86.4215   11.6851 O.2     1  UNL1       -0.1499
     26 O          62.5283   86.9135    9.2962 O.2     1  UNL1       -0.1499
     27 C          61.3399   88.1323   10.5620 C.ar    1  UNL1        0.1252
     28 C          59.9876   88.5868   11.0252 C.ar    1  UNL1        0.0202
     29 C          59.6724   90.0516   11.0965 C.ar    1  UNL1        0.0014
     30 C          60.7097   91.0619   10.7046 C.ar    1  UNL1        0.0001
     31 C          62.0620   90.6074   10.2415 C.ar    1  UNL1        0.0014
     32 C          62.3771   89.1426   10.1701 C.ar    1  UNL1        0.0202
@<TRIPOS>BOND
     1    20    21    3
     2    21    11    1
     3    11    12    2
     4    12    13    1
     5    13    14    2
     6    14    15    1
     7    15    16    2
     8    16    17    1
     9    17     9    1
    10     9    10    2
    11     9     1    1
    12     1     2   ar
    13     2     3    1
    14     2     4   ar
    15     4     5   ar
    16     5     6   ar
    17     6    22    1
    18    22    24    1
    19    24    25    2
    20    24    26    2
    21    24    27    1
    22    27    28   ar
    23    28    29   ar
    24    29    30   ar
    25    30    31   ar
    26    31    32   ar
    27     6     7   ar
    28     7     8    1
    29    17    18    2
    30    18    19    1
    31    19    11    1
    32    18    14    1
    33     7     1   ar
    34    32    27   ar
    35    22    23    1
@<TRIPOS>MOLECULE
*****
 32 35 0 0 0
SMALL
GASTEIGER

@<TRIPOS>ATOM
      1 C          61.8471   86.6744   10.2953 C.ar    1  UNL1        0.0951
      2 C          60.7873   86.6686    9.2338 C.ar    1  UNL1        0.1454
      3 F          60.5477   85.4315    8.4201 F       1  UNL1       -0.2040
      4 C          59.9673   87.8999    8.9858 C.ar    1  UNL1        0.0312
      5 C          60.2070   89.1371    9.7994 C.ar    1  UNL1        0.0204
      6 C          61.2667   89.1429   10.8610 C.ar    1  UNL1        0.0924
      7 C          62.0868   87.9116   11.1090 C.ar    1  UNL1        0.1598
      8 F          63.1465   87.9175   12.1706 F       1  UNL1       -0.2026
      9 C          62.6671   85.4432   10.5433 C.2     1  UNL1        0.2036
     10 O          63.4235   84.8061    9.4154 O.2     1  UNL1       -0.2863
     11 C          62.7948   80.7991   12.0036 C.2     1  UNL1        0.0974
     12 C          62.8563   80.6595   13.4958 C.2     1  UNL1        0.2421
     13 N          62.8725   81.8830   14.3635 N.2     1  UNL1       -0.0304
     14 C          62.8272   83.2460   13.7389 C.2     1  UNL1        0.3721
     15 N          62.8302   84.6231   14.3335 N.2     1  UNL1       -0.0307
     16 C          62.7706   85.6138   13.2088 C.2     1  UNL1        0.2390
     17 C          62.7308   84.8490   11.9191 C.2     1  UNL1        0.0896
     18 C          62.7657   83.3856   12.2468 C.2     1  UNL1        0.0782
     19 C          62.7495   82.1621   11.3791 C.3     1  UNL1        0.0751
     20 N          62.7624   78.3522   10.2682 N.1     1  UNL1       -0.1910
     21 C          62.7786   79.5756   11.1359 C.1     1  UNL1        0.1003
     22 N          61.5064   90.3800   11.6746 N.pl3   1  UNL1       -0.2128
     23 H          60.7513   90.8349   12.1129 H       1  UNL1        0.1738
     24 S          62.8966   90.9242   11.8205 S.O2    1  UNL1        0.0736
     25 O          62.9212   91.2537   10.3574 O.2     1  UNL1       -0.1499
     26 O          62.8720   90.5946   13.2837 O.2     1  UNL1       -0.1499
     27 C          64.2868   91.4683   11.9665 C.ar    1  UNL1        0.1252
     28 C          64.9498   92.1525   10.8079 C.ar    1  UNL1        0.0202
     29 C          66.3400   92.6967   10.9538 C.ar    1  UNL1        0.0014
     30 C          67.0672   92.5565   12.2582 C.ar    1  UNL1        0.0001
     31 C          66.4043   91.8723   13.4167 C.ar    1  UNL1        0.0014
     32 C          65.0141   91.3281   13.2709 C.ar    1  UNL1        0.0202
@<TRIPOS>BOND
     1    20    21    3
     2    21    11    1
     3    11    12    2
     4    12    13    1
     5    13    14    2
     6    14    15    1
     7    15    16    2
     8    16    17    1
     9    17     9    1
    10     9    10    2
    11     9     1    1
    12     1     2   ar
    13     2     3    1
    14     2     4   ar
    15     4     5   ar
    16     5     6   ar
    17     6    22    1
    18    22    24    1
    19    24    25    2
    20    24    26    2
    21    24    27    1
    22    27    28   ar
    23    28    29   ar
    24    29    30   ar
    25    30    31   ar
    26    31    32   ar
    27     6     7   ar
    28     7     8    1
    29    17    18    2
    30    18    19    1
    31    19    11    1
    32    18    14    1
    33     7     1   ar
    34    32    27   ar
    35    22    23    1
@<TRIPOS>MOLECULE
*****
 32 35 0 0 0
SMALL
GASTEIGER

@<TRIPOS>ATOM
      1 C          62.4411   88.7488   11.1809 C.ar    1  UNL1        0.0951
      2 C          61.3912   88.2275   10.2450 C.ar    1  UNL1        0.1454
      3 F          60.7088   89.1604    9.2890 F       1  UNL1       -0.2040
      4 C          61.0238   86.7733   10.2650 C.ar    1  UNL1        0.0312
      5 C          61.7063   85.8404   11.2210 C.ar    1  UNL1        0.0204
      6 C          62.7562   86.3617   12.1569 C.ar    1  UNL1        0.0924
      7 C          63.1236   87.8159   12.1369 C.ar    1  UNL1        0.1598
      8 F          64.1735   88.3371   13.0729 F       1  UNL1       -0.2026
      9 C          62.8085   90.2029   11.1609 C.2     1  UNL1        0.2036
     10 O          62.5343   91.0290    9.9392 O.2     1  UNL1       -0.2863
     11 C          66.4654   93.3997   11.5127 C.2     1  UNL1        0.0974
     12 C          66.7869   93.7626   12.9321 C.2     1  UNL1        0.2421
     13 N          66.0065   93.1512   14.0577 N.2     1  UNL1       -0.0304
     14 C          64.9046   92.1768   13.7639 C.2     1  UNL1        0.3721
     15 N          63.9703   91.4182   14.6593 N.2     1  UNL1       -0.0307
     16 C          63.0714   90.5864   13.7931 C.2     1  UNL1        0.2390
     17 C          63.4501   90.8310   12.3625 C.2     1  UNL1        0.0896
     18 C          64.5831   91.8139   12.3445 C.2     1  UNL1        0.0782
     19 C          65.3635   92.4254   11.2188 C.3     1  UNL1        0.0751
     20 N          68.0263   94.6227    9.2614 N.1     1  UNL1       -0.1910
     21 C          67.2458   94.0112   10.3870 C.1     1  UNL1        0.1003
     22 N          63.4387   85.4288   13.1129 N.pl3   1  UNL1       -0.2128
     23 H          64.1361   85.7686   13.7190 H       1  UNL1        0.1738
     24 S          63.0586   83.9781   13.1454 S.O2    1  UNL1        0.0736
     25 O          64.0883   83.6847   12.0950 O.2     1  UNL1       -0.1499
     26 O          62.0288   84.2715   14.1958 O.2     1  UNL1       -0.1499
     27 C          62.6784   82.5274   13.1779 C.ar    1  UNL1        0.1252
     28 C          61.7842   82.0107   14.2658 C.ar    1  UNL1        0.0202
     29 C          61.4040   80.5601   14.2984 C.ar    1  UNL1        0.0014
     30 C          61.9180   79.6261   13.2431 C.ar    1  UNL1        0.0001
     31 C          62.8122   80.1428   12.1553 C.ar    1  UNL1        0.0014
     32 C          63.1924   81.5935   12.1227 C.ar    1  UNL1        0.0202
@<TRIPOS>BOND
     1    20    21    3
     2    21    11    1
     3    11    12    2
     4    12    13    1
     5    13    14    2
     6    14    15    1
     7    15    16    2
     8    16    17    1
     9    17     9    1
    10     9    10    2
    11     9     1    1
    12     1     2   ar
    13     2     3    1
    14     2     4   ar
    15     4     5   ar
    16     5     6   ar
    17     6    22    1
    18    22    24    1
    19    24    25    2
    20    24    26    2
    21    24    27    1
    22    27    28   ar
    23    28    29   ar
    24    29    30   ar
    25    30    31   ar
    26    31    32   ar
    27     6     7   ar
    28     7     8    1
    29    17    18    2
    30    18    19    1
    31    19    11    1
    32    18    14    1
    33     7     1   ar
    34    32    27   ar
    35    22    23    1
@<TRIPOS>MOLECULE
*****
 32 35 0 0 0
SMALL
GASTEIGER

@<TRIPOS>ATOM
      1 C          64.1027   86.2229   15.3813 C.ar    1  UNL1        0.0951
      2 C          63.2744   85.6062   16.4692 C.ar    1  UNL1        0.1454
      3 F          63.2145   84.1142   16.6117 F       1  UNL1       -0.2040
      4 C          62.5060   86.4814   17.4144 C.ar    1  UNL1        0.0312
      5 C          62.5659   87.9734   17.2719 C.ar    1  UNL1        0.0204
      6 C          63.3943   88.5902   16.1840 C.ar    1  UNL1        0.0924
      7 C          64.1627   87.7150   15.2387 C.ar    1  UNL1        0.1598
      8 F          64.9910   88.3318   14.1509 F       1  UNL1       -0.2026
      9 C          64.8712   85.3477   14.4360 C.2     1  UNL1        0.2036
     10 O          66.3519   85.1789   14.6059 O.2     1  UNL1       -0.2863
     11 C          61.8131   87.0307   11.0401 C.2     1  UNL1        0.0974
     12 C          61.3301   85.9586   10.1089 C.2     1  UNL1        0.2421
     13 N          61.7975   84.5444   10.2866 N.2     1  UNL1       -0.0304
     14 C          62.7479   84.2023   11.3954 C.2     1  UNL1        0.3721
     15 N          63.3772   82.9067   11.8141 N.2     1  UNL1       -0.0307
     16 C          64.2492   83.1780   13.0041 C.2     1  UNL1        0.2390
     17 C          64.1588   84.6414   13.3209 C.2     1  UNL1        0.0896
     18 C          63.2309   85.2744   12.3266 C.2     1  UNL1        0.0782
     19 C          62.7635   86.6886   12.1490 C.3     1  UNL1        0.0751
     20 N          60.8783   89.8591   10.6848 N.1     1  UNL1       -0.1910
     21 C          61.3457   88.4449   10.8625 C.1     1  UNL1        0.1003
     22 N          63.4542   90.0822   16.0414 N.pl3   1  UNL1       -0.2128
     23 H          63.2033   90.6595   16.7984 H       1  UNL1        0.1738
     24 S          63.8964   90.6946   14.7456 S.O2    1  UNL1        0.0736
     25 O          62.6594   90.1729   14.0768 O.2     1  UNL1       -0.1499
     26 O          65.1336   91.2164   15.4143 O.2     1  UNL1       -0.1499
     27 C          64.3387   91.3072   13.4496 C.ar    1  UNL1        0.1252
     28 C          63.5887   91.0099   12.1851 C.ar    1  UNL1        0.0202
     29 C          64.0309   91.6223   10.8892 C.ar    1  UNL1        0.0014
     30 C          65.2232   92.5321   10.8579 C.ar    1  UNL1        0.0001
     31 C          65.9732   92.8293   12.1224 C.ar    1  UNL1        0.0014
     32 C          65.5310   92.2169   13.4183 C.ar    1  UNL1        0.0202
@<TRIPOS>BOND
     1    20    21    3
     2    21    11    1
     3    11    12    2
     4    12    13    1
     5    13    14    2
     6    14    15    1
     7    15    16    2
     8    16    17    1
     9    17     9    1
    10     9    10    2
    11     9     1    1
    12     1     2   ar
    13     2     3    1
    14     2     4   ar
    15     4     5   ar
    16     5     6   ar
    17     6    22    1
    18    22    24    1
    19    24    25    2
    20    24    26    2
    21    24    27    1
    22    27    28   ar
    23    28    29   ar
    24    29    30   ar
    25    30    31   ar
    26    31    32   ar
    27     6     7   ar
    28     7     8    1
    29    17    18    2
    30    18    19    1
    31    19    11    1
    32    18    14    1
    33     7     1   ar
    34    32    27   ar
    35    22    23    1
@<TRIPOS>MOLECULE
*****
 32 35 0 0 0
SMALL
GASTEIGER

@<TRIPOS>ATOM
      1 C          63.9231   88.1857   15.4796 C.ar    1  UNL1        0.0951
      2 C          63.1191   88.6066   16.6738 C.ar    1  UNL1        0.1454
      3 F          62.8286   90.0594   16.9082 F       1  UNL1       -0.2040
      4 C          62.6055   87.5747   17.6337 C.ar    1  UNL1        0.0312
      5 C          62.8960   86.1218   17.3993 C.ar    1  UNL1        0.0204
      6 C          63.7001   85.7010   16.2050 C.ar    1  UNL1        0.0924
      7 C          64.2136   86.7329   15.2451 C.ar    1  UNL1        0.1598
      8 F          65.0177   86.3120   14.0508 F       1  UNL1       -0.2026
      9 C          64.4367   89.2176   14.5197 C.2     1  UNL1        0.2036
     10 O          65.6296   90.0516   14.8824 O.2     1  UNL1       -0.2863
     11 C          64.9284   92.7288   11.1811 C.2     1  UNL1        0.0974
     12 C          64.0391   92.5282    9.9900 C.2     1  UNL1        0.2421
     13 N          63.1278   91.3385    9.9262 N.2     1  UNL1       -0.0304
     14 C          63.1058   90.3494   11.0536 C.2     1  UNL1        0.3721
     15 N          62.3185   89.0910   11.2697 N.2     1  UNL1       -0.0307
     16 C          62.7213   88.5139   12.5943 C.2     1  UNL1        0.2390
     17 C          63.7574   89.4156   13.1970 C.2     1  UNL1        0.0896
     18 C          63.9951   90.5500   12.2448 C.2     1  UNL1        0.0782
     19 C          64.9064   91.7397   12.3085 C.3     1  UNL1        0.0751
     20 N          66.7511   95.1083   11.3086 N.1     1  UNL1       -0.1910
     21 C          65.8398   93.9186   11.2448 C.1     1  UNL1        0.1003
     22 N          63.9905   84.2482   15.9706 N.pl3   1  UNL1       -0.2128
     23 H          64.2746   83.6759   16.7196 H       1  UNL1        0.1738
     24 S          63.8482   83.6673   14.5950 S.O2    1  UNL1        0.0736
     25 O          62.3555   83.7593   14.7105 O.2     1  UNL1       -0.1499
     26 O          65.3408   83.5752   14.4794 O.2     1  UNL1       -0.1499
     27 C          63.7058   83.0863   13.2193 C.ar    1  UNL1        0.1252
     28 C          62.9031   81.8362   13.0126 C.ar    1  UNL1        0.0202
     29 C          62.7607   81.2553   11.6370 C.ar    1  UNL1        0.0014
     30 C          63.4211   81.9244   10.4682 C.ar    1  UNL1        0.0001
     31 C          64.2239   83.1746   10.6749 C.ar    1  UNL1        0.0014
     32 C          64.3662   83.7555   12.0505 C.ar    1  UNL1        0.0202
@<TRIPOS>BOND
     1    20    21    3
     2    21    11    1
     3    11    12    2
     4    12    13    1
     5    13    14    2
     6    14    15    1
     7    15    16    2
     8    16    17    1
     9    17     9    1
    10     9    10    2
    11     9     1    1
    12     1     2   ar
    13     2     3    1
    14     2     4   ar
    15     4     5   ar
    16     5     6   ar
    17     6    22    1
    18    22    24    1
    19    24    25    2
    20    24    26    2
    21    24    27    1
    22    27    28   ar
    23    28    29   ar
    24    29    30   ar
    25    30    31   ar
    26    31    32   ar
    27     6     7   ar
    28     7     8    1
    29    17    18    2
    30    18    19    1
    31    19    11    1
    32    18    14    1
    33     7     1   ar
    34    32    27   ar
    35    22    23    1
@<TRIPOS>MOLECULE
*****
 32 35 0 0 0
SMALL
GASTEIGER

@<TRIPOS>ATOM
      1 C          61.8593   86.3074    9.8020 C.ar    1  UNL1        0.0951
      2 C          60.5908   86.2777    9.0020 C.ar    1  UNL1        0.1454
      3 F          60.3937   85.2294    7.9474 F       1  UNL1       -0.2040
      4 C          59.5195   87.2963    9.2565 C.ar    1  UNL1        0.0312
      5 C          59.7166   88.3446   10.3111 C.ar    1  UNL1        0.0204
      6 C          60.9852   88.3743   11.1112 C.ar    1  UNL1        0.0924
      7 C          62.0565   87.3557   10.8567 C.ar    1  UNL1        0.1598
      8 F          63.3249   87.3855   11.6568 F       1  UNL1       -0.2026
      9 C          62.9306   85.2888    9.5476 C.2     1  UNL1        0.2036
     10 O          63.8743   85.4648    8.3949 O.2     1  UNL1       -0.2863
     11 C          63.4296   84.9782   14.3819 C.2     1  UNL1        0.0974
     12 C          63.5223   83.5622   14.8678 C.2     1  UNL1        0.2421
     13 N          63.4581   82.4276   13.8888 N.2     1  UNL1       -0.0304
     14 C          63.3011   82.7090   12.4238 C.2     1  UNL1        0.3721
     15 N          63.2083   81.8030   11.2320 N.2     1  UNL1       -0.0307
     16 C          63.0582   82.6591   10.0094 C.2     1  UNL1        0.2390
     17 C          63.0583   84.0943   10.4457 C.2     1  UNL1        0.0896
     18 C          63.2084   84.1251   11.9379 C.2     1  UNL1        0.0782
     19 C          63.2726   85.2597   12.9170 C.3     1  UNL1        0.0751
     20 N          63.5580   87.2474   16.3400 N.1     1  UNL1       -0.1910
     21 C          63.4938   86.1128   15.3610 C.1     1  UNL1        0.1003
     22 N          61.1823   89.4226   12.1658 N.pl3   1  UNL1       -0.2128
     23 H          60.4782   89.5872   12.8339 H       1  UNL1        0.1738
     24 S          62.4521   90.2202   12.2023 S.O2    1  UNL1        0.0736
     25 O          62.7441   89.6925   13.5756 O.2     1  UNL1       -0.1499
     26 O          62.1601   90.7480   10.8289 O.2     1  UNL1       -0.1499
     27 C          63.7219   91.0179   12.2388 C.ar    1  UNL1        0.1252
     28 C          64.5162   91.1057   13.5082 C.ar    1  UNL1        0.0202
     29 C          65.7860   91.9033   13.5448 C.ar    1  UNL1        0.0014
     30 C          66.2616   92.6132   12.3120 C.ar    1  UNL1        0.0001
     31 C          65.4673   92.5255   11.0425 C.ar    1  UNL1        0.0014
     32 C          64.1975   91.7278   11.0060 C.ar    1  UNL1        0.0202
@<TRIPOS>BOND
     1    20    21    3
     2    21    11    1
     3    11    12    2
     4    12    13    1
     5    13    14    2
     6    14    15    1
     7    15    16    2
     8    16    17    1
     9    17     9    1
    10     9    10    2
    11     9     1    1
    12     1     2   ar
    13     2     3    1
    14     2     4   ar
    15     4     5   ar
    16     5     6   ar
    17     6    22    1
    18    22    24    1
    19    24    25    2
    20    24    26    2
    21    24    27    1
    22    27    28   ar
    23    28    29   ar
    24    29    30   ar
    25    30    31   ar
    26    31    32   ar
    27     6     7   ar
    28     7     8    1
    29    17    18    2
    30    18    19    1
    31    19    11    1
    32    18    14    1
    33     7     1   ar
    34    32    27   ar
    35    22    23    1
@<TRIPOS>MOLECULE
*****
 32 35 0 0 0
SMALL
GASTEIGER

@<TRIPOS>ATOM
      1 C          62.3757   88.9918   11.1773 C.ar    1  UNL1        0.0951
      2 C          61.7515   88.3991    9.9489 C.ar    1  UNL1        0.1454
      3 F          61.1533   89.2948    8.9049 F       1  UNL1       -0.2040
      4 C          61.7254   86.9107    9.7644 C.ar    1  UNL1        0.0312
      5 C          62.3236   86.0149   10.8083 C.ar    1  UNL1        0.0204
      6 C          62.9479   86.6077   12.0368 C.ar    1  UNL1        0.0924
      7 C          62.9739   88.0961   12.2213 C.ar    1  UNL1        0.1598
      8 F          63.5982   88.6887   13.4497 F       1  UNL1       -0.2026
      9 C          62.4017   90.4801   11.3618 C.2     1  UNL1        0.2036
     10 O          61.1338   91.2200   11.6700 O.2     1  UNL1       -0.2863
     11 C          65.3333   92.3570   14.7676 C.2     1  UNL1        0.0974
     12 C          66.5407   93.0327   14.1884 C.2     1  UNL1        0.2421
     13 N          66.7363   93.0738   12.7018 N.2     1  UNL1       -0.0304
     14 C          65.7245   92.4392   11.7944 C.2     1  UNL1        0.3721
     15 N          65.6494   92.3220   10.3008 N.2     1  UNL1       -0.0307
     16 C          64.3955   91.5739    9.9570 C.2     1  UNL1        0.2390
     17 C          63.6957   91.2287   11.2380 C.2     1  UNL1        0.0896
     18 C          64.5171   91.7635   12.3736 C.2     1  UNL1        0.0782
     19 C          64.3215   91.7224   13.8602 C.3     1  UNL1        0.0751
     20 N          64.9420   92.2749   17.7409 N.1     1  UNL1       -0.1910
     21 C          65.1377   92.3160   16.2542 C.1     1  UNL1        0.1003
     22 N          63.5461   85.7120   13.0808 N.pl3   1  UNL1       -0.2128
     23 H          64.1965   86.0734   13.7254 H       1  UNL1        0.1738
     24 S          63.1533   84.2656   13.1425 S.O2    1  UNL1        0.0736
     25 O          62.1692   84.5792   14.2301 O.2     1  UNL1       -0.1499
     26 O          64.1375   83.9520   12.0548 O.2     1  UNL1       -0.1499
     27 C          62.7606   82.8192   13.2041 C.ar    1  UNL1        0.1252
     28 C          61.8408   82.3374   14.2866 C.ar    1  UNL1        0.0202
     29 C          61.4481   80.8910   14.3483 C.ar    1  UNL1        0.0014
     30 C          61.9751   79.9265   13.3275 C.ar    1  UNL1        0.0001
     31 C          62.8949   80.4084   12.2451 C.ar    1  UNL1        0.0014
     32 C          63.2877   81.8547   12.1833 C.ar    1  UNL1        0.0202
@<TRIPOS>BOND
     1    20    21    3
     2    21    11    1
     3    11    12    2
     4    12    13    1
     5    13    14    2
     6    14    15    1
     7    15    16    2
     8    16    17    1
     9    17     9    1
    10     9    10    2
    11     9     1    1
    12     1     2   ar
    13     2     3    1
    14     2     4   ar
    15     4     5   ar
    16     5     6   ar
    17     6    22    1
    18    22    24    1
    19    24    25    2
    20    24    26    2
    21    24    27    1
    22    27    28   ar
    23    28    29   ar
    24    29    30   ar
    25    30    31   ar
    26    31    32   ar
    27     6     7   ar
    28     7     8    1
    29    17    18    2
    30    18    19    1
    31    19    11    1
    32    18    14    1
    33     7     1   ar
    34    32    27   ar
    35    22    23    1
@<TRIPOS>MOLECULE
*****
 32 35 0 0 0
SMALL
GASTEIGER

@<TRIPOS>ATOM
      1 C          64.3567   91.0524   14.2496 C.ar    1  UNL1        0.0951
      2 C          64.6072   91.5075   15.6567 C.ar    1  UNL1        0.1454
      3 F          63.6814   91.0834   16.7581 F       1  UNL1       -0.2040
      4 C          65.7834   92.3867   15.9625 C.ar    1  UNL1        0.0312
      5 C          66.7092   92.8108   14.8611 C.ar    1  UNL1        0.0204
      6 C          66.4587   92.3556   13.4539 C.ar    1  UNL1        0.0924
      7 C          65.2824   91.4764   13.1481 C.ar    1  UNL1        0.1598
      8 F          65.0320   91.0214   11.7409 F       1  UNL1       -0.2026
      9 C          63.1804   90.1732   13.9438 C.2     1  UNL1        0.2036
     10 O          62.4210   89.5210   15.0609 O.2     1  UNL1       -0.2863
     11 C          62.6039   86.0526   11.4131 C.2     1  UNL1        0.0974
     12 C          62.1687   86.2944    9.9981 C.2     1  UNL1        0.2421
     13 N          61.9593   87.6962    9.5071 N.2     1  UNL1       -0.0304
     14 C          62.1850   88.8561   10.4309 C.2     1  UNL1        0.3721
     15 N          62.0595   90.3375   10.2314 N.2     1  UNL1       -0.0307
     16 C          62.4171   91.0112   11.5230 C.2     1  UNL1        0.2390
     17 C          62.7636   89.9462   12.5208 C.2     1  UNL1        0.0896
     18 C          62.6202   88.6143   11.8459 C.2     1  UNL1        0.0782
     19 C          62.8296   87.2125   12.3369 C.3     1  UNL1        0.0751
     20 N          63.0227   83.2490   12.3952 N.1     1  UNL1       -0.1910
     21 C          62.8133   84.6508   11.9041 C.1     1  UNL1        0.1003
     22 N          67.3845   92.7797   12.3525 N.pl3   1  UNL1       -0.2128
     23 H          68.2876   92.3924   12.2921 H       1  UNL1        0.1738
     24 S          66.9343   93.7939   11.3432 S.O2    1  UNL1        0.0736
     25 O          66.3210   94.6131   12.4397 O.2     1  UNL1       -0.1499
     26 O          67.5476   92.9746   10.2465 O.2     1  UNL1       -0.1499
     27 C          66.4841   94.8080   10.3337 C.ar    1  UNL1        0.1252
     28 C          65.4574   95.8351   10.7091 C.ar    1  UNL1        0.0202
     29 C          65.0072   96.8492    9.6997 C.ar    1  UNL1        0.0014
     30 C          65.5838   96.8363    8.3150 C.ar    1  UNL1        0.0001
     31 C          66.6105   95.8093    7.9396 C.ar    1  UNL1        0.0014
     32 C          67.0607   94.7951    8.9490 C.ar    1  UNL1        0.0202
@<TRIPOS>BOND
     1    20    21    3
     2    21    11    1
     3    11    12    2
     4    12    13    1
     5    13    14    2
     6    14    15    1
     7    15    16    2
     8    16    17    1
     9    17     9    1
    10     9    10    2
    11     9     1    1
    12     1     2   ar
    13     2     3    1
    14     2     4   ar
    15     4     5   ar
    16     5     6   ar
    17     6    22    1
    18    22    24    1
    19    24    25    2
    20    24    26    2
    21    24    27    1
    22    27    28   ar
    23    28    29   ar
    24    29    30   ar
    25    30    31   ar
    26    31    32   ar
    27     6     7   ar
    28     7     8    1
    29    17    18    2
    30    18    19    1
    31    19    11    1
    32    18    14    1
    33     7     1   ar
    34    32    27   ar
    35    22    23    1
