@<TRIPOS>MOLECULE
*****
 21 24 0 0 0
SMALL
GASTEIGER

@<TRIPOS>ATOM
      1 C          63.3186   85.2754   13.1543 C.ar    1  UNL1        0.1453
      2 N          63.9512   85.9685   14.3245 N.ar    1  UNL1       -0.2267
      3 C          63.9593   87.4416   14.0419 C.ar    1  UNL1        0.1010
      4 C          64.4570   88.6131   14.8353 C.ar    1  UNL1        0.0526
      5 C          64.3271   90.0020   14.2839 C.ar    1  UNL1        0.1690
      6 F          64.8249   91.1737   15.0774 F       1  UNL1       -0.2017
      7 C          63.6994   90.2193   12.9390 C.ar    1  UNL1        0.1689
      8 F          63.5695   91.6083   12.3876 F       1  UNL1       -0.2017
      9 C          63.2017   89.0478   12.1455 C.ar    1  UNL1        0.0507
     10 C          63.3316   87.6589   12.6969 C.ar    1  UNL1        0.0812
     11 N          62.9357   86.3201   12.1484 N.ar    1  UNL1       -0.3132
     12 F          63.1999   81.0062   10.1946 F       1  UNL1       -0.2025
     13 C          63.0469   81.6625   11.5347 C.ar    1  UNL1        0.1593
     14 C          62.6815   80.8405   12.7350 C.ar    1  UNL1        0.1284
     15 N          62.5285   81.4968   14.0751 N.ar    1  UNL1       -0.2399
     16 C          62.7409   82.9751   14.2149 C.ar    1  UNL1        0.1020
     17 C          63.1062   83.7971   13.0146 C.ar    1  UNL1        0.0555
     18 C          63.2593   83.1408   11.6745 C.ar    1  UNL1        0.0358
     19 C          62.2731   86.0700   10.8262 C.3     1  UNL1        0.0870
     20 C          61.0356   86.0366    9.9789 C.3     1  UNL1        0.0245
     21 C          62.3627   85.6703    9.3832 C.3     1  UNL1        0.0245
@<TRIPOS>BOND
     1    12    13    1
     2    13    14   ar
     3    14    15   ar
     4    15    16   ar
     5    16    17   ar
     6    17     1    1
     7     1     2   ar
     8     2     3   ar
     9     3     4   ar
    10     4     5   ar
    11     5     6    1
    12     5     7   ar
    13     7     8    1
    14     7     9   ar
    15     9    10   ar
    16    10    11   ar
    17    11    19    1
    18    19    20    1
    19    20    21    1
    20    17    18   ar
    21    18    13   ar
    22    11     1   ar
    23    21    19    1
    24    10     3   ar
@<TRIPOS>MOLECULE
*****
 21 24 0 0 0
SMALL
GASTEIGER

@<TRIPOS>ATOM
      1 C          62.5823   84.6632   12.2911 C.ar    1  UNL1        0.1453
      2 N          61.9093   85.2271   11.0749 N.ar    1  UNL1       -0.2267
      3 C          62.1537   86.7069   11.0541 C.ar    1  UNL1        0.1010
      4 C          61.7323   87.7803   10.0949 C.ar    1  UNL1        0.0526
      5 C          62.1350   89.2045   10.3390 C.ar    1  UNL1        0.1690
      6 F          61.7136   90.2780    9.3797 F       1  UNL1       -0.2017
      7 C          62.9590   89.5552   11.5423 C.ar    1  UNL1        0.1689
      8 F          63.3616   90.9794   11.7864 F       1  UNL1       -0.2017
      9 C          63.3803   88.4817   12.5015 C.ar    1  UNL1        0.0507
     10 C          62.9777   87.0576   12.2574 C.ar    1  UNL1        0.0812
     11 N          63.2426   85.7945   13.0219 N.ar    1  UNL1       -0.3132
     12 F          62.9008   79.6283   11.0466 F       1  UNL1       -0.2025
     13 C          62.7523   80.7037   12.0818 C.ar    1  UNL1        0.1593
     14 C          62.6147   80.3371   13.5297 C.ar    1  UNL1        0.1284
     15 N          62.4663   81.4125   14.5648 N.ar    1  UNL1       -0.2399
     16 C          62.4555   82.8545   14.1519 C.ar    1  UNL1        0.1020
     17 C          62.5931   83.2211   12.7040 C.ar    1  UNL1        0.0555
     18 C          62.7415   82.1457   11.6689 C.ar    1  UNL1        0.0358
     19 C          64.0296   85.6825   14.2940 C.3     1  UNL1        0.0870
     20 C          64.0814   85.6748   15.7931 C.3     1  UNL1        0.0245
     21 C          65.3408   85.4961   14.9982 C.3     1  UNL1        0.0245
@<TRIPOS>BOND
     1    12    13    1
     2    13    14   ar
     3    14    15   ar
     4    15    16   ar
     5    16    17   ar
     6    17     1    1
     7     1     2   ar
     8     2     3   ar
     9     3     4   ar
    10     4     5   ar
    11     5     6    1
    12     5     7   ar
    13     7     8    1
    14     7     9   ar
    15     9    10   ar
    16    10    11   ar
    17    11    19    1
    18    19    20    1
    19    20    21    1
    20    17    18   ar
    21    18    13   ar
    22    11     1   ar
    23    21    19    1
    24    10     3   ar
@<TRIPOS>MOLECULE
*****
 21 24 0 0 0
SMALL
GASTEIGER

@<TRIPOS>ATOM
      1 C          62.7690   86.1348   12.1794 C.ar    1  UNL1        0.1453
      2 N          62.9091   85.4083   13.4842 N.ar    1  UNL1       -0.2267
      3 C          62.9160   83.9361   13.1967 C.ar    1  UNL1        0.1010
      4 C          63.0284   82.7389   14.0934 C.ar    1  UNL1        0.0526
      5 C          63.0049   81.3583   13.5074 C.ar    1  UNL1        0.1690
      6 F          63.1173   80.1610   14.4041 F       1  UNL1       -0.2017
      7 C          62.8690   81.1749   12.0249 C.ar    1  UNL1        0.1689
      8 F          62.8455   79.7942   11.4390 F       1  UNL1       -0.2017
      9 C          62.7565   82.3721   11.1283 C.ar    1  UNL1        0.0507
     10 C          62.7800   83.7527   11.7142 C.ar    1  UNL1        0.0812
     11 N          62.6892   85.1116   11.0855 N.ar    1  UNL1       -0.3132
     12 F          60.7743   90.3179    9.8294 F       1  UNL1       -0.2025
     13 C          61.7204   89.7147   10.8250 C.ar    1  UNL1        0.1593
     14 C          62.6150   90.5998   11.6412 C.ar    1  UNL1        0.1284
     15 N          63.5609   89.9966   12.6368 N.ar    1  UNL1       -0.2399
     16 C          63.6122   88.5082   12.8162 C.ar    1  UNL1        0.1020
     17 C          62.7176   87.6231   12.0000 C.ar    1  UNL1        0.0555
     18 C          61.7717   88.2264   11.0044 C.ar    1  UNL1        0.0358
     19 C          62.5441   85.3971    9.6201 C.3     1  UNL1        0.0870
     20 C          63.0973   85.3507    8.2265 C.3     1  UNL1        0.0245
     21 C          61.7396   85.9378    8.4754 C.3     1  UNL1        0.0245
@<TRIPOS>BOND
     1    12    13    1
     2    13    14   ar
     3    14    15   ar
     4    15    16   ar
     5    16    17   ar
     6    17     1    1
     7     1     2   ar
     8     2     3   ar
     9     3     4   ar
    10     4     5   ar
    11     5     6    1
    12     5     7   ar
    13     7     8    1
    14     7     9   ar
    15     9    10   ar
    16    10    11   ar
    17    11    19    1
    18    19    20    1
    19    20    21    1
    20    17    18   ar
    21    18    13   ar
    22    11     1   ar
    23    21    19    1
    24    10     3   ar
@<TRIPOS>MOLECULE
*****
 21 24 0 0 0
SMALL
GASTEIGER

@<TRIPOS>ATOM
      1 C          62.1188   87.9379   10.1317 C.ar    1  UNL1        0.1453
      2 N          62.3830   89.4118   10.0422 N.ar    1  UNL1       -0.2267
      3 C          63.0911   89.8328   11.2958 C.ar    1  UNL1        0.1010
      4 C          63.6003   91.1644   11.7619 C.ar    1  UNL1        0.0526
      5 C          64.2829   91.2824   13.0923 C.ar    1  UNL1        0.1690
      6 F          64.7922   92.6141   13.5585 F       1  UNL1       -0.2017
      7 C          64.4562   90.0688   13.9567 C.ar    1  UNL1        0.1689
      8 F          65.1389   90.1868   15.2872 F       1  UNL1       -0.2017
      9 C          63.9470   88.7371   13.4905 C.ar    1  UNL1        0.0507
     10 C          63.2644   88.6191   12.1601 C.ar    1  UNL1        0.0812
     11 N          62.6635   87.4481   11.4407 N.ar    1  UNL1       -0.3132
     12 F          62.3080   84.2579    6.4682 F       1  UNL1       -0.2025
     13 C          61.5252   85.2610    7.2627 C.ar    1  UNL1        0.1593
     14 C          60.0544   85.4270    7.0199 C.ar    1  UNL1        0.1284
     15 N          59.2717   86.4300    7.8144 N.ar    1  UNL1       -0.2399
     16 C          59.9598   87.2670    8.8517 C.ar    1  UNL1        0.1020
     17 C          61.4307   87.1010    9.0944 C.ar    1  UNL1        0.0555
     18 C          62.2134   86.0979    8.3000 C.ar    1  UNL1        0.0358
     19 C          62.6157   86.0352   11.9422 C.3     1  UNL1        0.0870
     20 C          62.8004   85.0440   13.0529 C.3     1  UNL1        0.0245
     21 C          62.3483   84.5792   11.7002 C.3     1  UNL1        0.0245
@<TRIPOS>BOND
     1    12    13    1
     2    13    14   ar
     3    14    15   ar
     4    15    16   ar
     5    16    17   ar
     6    17     1    1
     7     1     2   ar
     8     2     3   ar
     9     3     4   ar
    10     4     5   ar
    11     5     6    1
    12     5     7   ar
    13     7     8    1
    14     7     9   ar
    15     9    10   ar
    16    10    11   ar
    17    11    19    1
    18    19    20    1
    19    20    21    1
    20    17    18   ar
    21    18    13   ar
    22    11     1   ar
    23    21    19    1
    24    10     3   ar
@<TRIPOS>MOLECULE
*****
 21 24 0 0 0
SMALL
GASTEIGER

@<TRIPOS>ATOM
      1 C          62.4399   85.8980   11.6520 C.ar    1  UNL1        0.1453
      2 N          61.5926   85.2692   10.5859 N.ar    1  UNL1       -0.2267
      3 C          61.0204   86.3681    9.7403 C.ar    1  UNL1        0.1010
      4 C          60.1136   86.3467    8.5456 C.ar    1  UNL1        0.0526
      5 C          59.7005   87.6333    7.8945 C.ar    1  UNL1        0.1690
      6 F          58.7936   87.6120    6.6998 F       1  UNL1       -0.2017
      7 C          60.1942   88.9413    8.4381 C.ar    1  UNL1        0.1689
      8 F          59.7811   90.2280    7.7869 F       1  UNL1       -0.2017
      9 C          61.1010   88.9627    9.6327 C.ar    1  UNL1        0.0507
     10 C          61.5141   87.6761   10.2838 C.ar    1  UNL1        0.0812
     11 N          62.3914   87.3855   11.4653 N.ar    1  UNL1       -0.3132
     12 F          64.1577   85.5896   16.5463 F       1  UNL1       -0.2025
     13 C          64.0609   85.0133   15.1648 C.ar    1  UNL1        0.1593
     14 C          64.7260   83.7065   14.8490 C.ar    1  UNL1        0.1284
     15 N          64.6292   83.1301   13.4675 N.ar    1  UNL1       -0.2399
     16 C          63.8671   83.8606   12.4019 C.ar    1  UNL1        0.1020
     17 C          63.2020   85.1675   12.7176 C.ar    1  UNL1        0.0555
     18 C          63.2988   85.7438   14.0991 C.ar    1  UNL1        0.0358
     19 C          63.0964   88.4037   12.3115 C.3     1  UNL1        0.0870
     20 C          63.9452   88.7407   13.5016 C.3     1  UNL1        0.0245
     21 C          63.4690   89.8303   12.5873 C.3     1  UNL1        0.0245
@<TRIPOS>BOND
     1    12    13    1
     2    13    14   ar
     3    14    15   ar
     4    15    16   ar
     5    16    17   ar
     6    17     1    1
     7     1     2   ar
     8     2     3   ar
     9     3     4   ar
    10     4     5   ar
    11     5     6    1
    12     5     7   ar
    13     7     8    1
    14     7     9   ar
    15     9    10   ar
    16    10    11   ar
    17    11    19    1
    18    19    20    1
    19    20    21    1
    20    17    18   ar
    21    18    13   ar
    22    11     1   ar
    23    21    19    1
    24    10     3   ar
@<TRIPOS>MOLECULE
*****
 21 24 0 0 0
SMALL
GASTEIGER

@<TRIPOS>ATOM
      1 C          62.5102   85.1723   11.7699 C.ar    1  UNL1        0.1453
      2 N          61.6640   85.3190   10.5401 N.ar    1  UNL1       -0.2267
      3 C          61.5042   86.7838   10.2593 C.ar    1  UNL1        0.1010
      4 C          60.7747   87.5248    9.1783 C.ar    1  UNL1        0.0526
      5 C          60.7926   89.0245    9.1536 C.ar    1  UNL1        0.1690
      6 F          60.0630   89.7656    8.0726 F       1  UNL1       -0.2017
      7 C          61.5400   89.7831   10.2100 C.ar    1  UNL1        0.1689
      8 F          61.5578   91.2829   10.1853 F       1  UNL1       -0.2017
      9 C          62.2695   89.0421   11.2910 C.ar    1  UNL1        0.0507
     10 C          62.2516   87.5425   11.3157 C.ar    1  UNL1        0.0812
     11 N          62.8733   86.5465   12.2493 N.ar    1  UNL1       -0.3132
     12 F          64.4873   82.5789   15.8153 F       1  UNL1       -0.2025
     13 C          63.9096   82.5819   14.4310 C.ar    1  UNL1        0.1593
     14 C          63.7428   81.2913   13.6851 C.ar    1  UNL1        0.1284
     15 N          63.1651   81.2943   12.3009 N.ar    1  UNL1       -0.2399
     16 C          62.7542   82.5880   11.6625 C.ar    1  UNL1        0.1020
     17 C          62.9210   83.8786   12.4083 C.ar    1  UNL1        0.0555
     18 C          63.4987   83.8756   13.7926 C.ar    1  UNL1        0.0358
     19 C          63.7111   86.8683   13.4512 C.3     1  UNL1        0.0870
     20 C          64.5902   86.4180   14.5801 C.3     1  UNL1        0.0245
     21 C          64.2830   87.8756   14.4041 C.3     1  UNL1        0.0245
@<TRIPOS>BOND
     1    12    13    1
     2    13    14   ar
     3    14    15   ar
     4    15    16   ar
     5    16    17   ar
     6    17     1    1
     7     1     2   ar
     8     2     3   ar
     9     3     4   ar
    10     4     5   ar
    11     5     6    1
    12     5     7   ar
    13     7     8    1
    14     7     9   ar
    15     9    10   ar
    16    10    11   ar
    17    11    19    1
    18    19    20    1
    19    20    21    1
    20    17    18   ar
    21    18    13   ar
    22    11     1   ar
    23    21    19    1
    24    10     3   ar
@<TRIPOS>MOLECULE
*****
 21 24 0 0 0
SMALL
GASTEIGER

@<TRIPOS>ATOM
      1 C          62.5369   86.0298   10.8106 C.ar    1  UNL1        0.1453
      2 N          62.6560   87.3841   11.4443 N.ar    1  UNL1       -0.2267
      3 C          63.1306   87.1960   12.8547 C.ar    1  UNL1        0.1010
      4 C          63.4265   88.1738   13.9530 C.ar    1  UNL1        0.0526
      5 C          63.8968   87.6809   15.2893 C.ar    1  UNL1        0.1690
      6 F          64.1928   88.6587   16.3877 F       1  UNL1       -0.2017
      7 C          64.0710   86.2102   15.5274 C.ar    1  UNL1        0.1689
      8 F          64.5413   85.7173   16.8639 F       1  UNL1       -0.2017
      9 C          63.7751   85.2324   14.4292 C.ar    1  UNL1        0.0507
     10 C          63.3048   85.7253   13.0928 C.ar    1  UNL1        0.0812
     11 N          62.9379   85.0046   11.8295 N.ar    1  UNL1       -0.3132
     12 F          58.9167   86.3046    7.0933 F       1  UNL1       -0.2025
     13 C          60.2844   85.8872    7.5463 C.ar    1  UNL1        0.1593
     14 C          61.2097   85.1899    6.5936 C.ar    1  UNL1        0.1284
     15 N          62.5774   84.7725    7.0466 N.ar    1  UNL1       -0.2399
     16 C          63.0198   85.0525    8.4523 C.ar    1  UNL1        0.1020
     17 C          62.0945   85.7498    9.4050 C.ar    1  UNL1        0.0555
     18 C          60.7268   86.1672    8.9519 C.ar    1  UNL1        0.0358
     19 C          62.9669   83.5193   11.6216 C.3     1  UNL1        0.0870
     20 C          63.5018   82.3191   10.8980 C.3     1  UNL1        0.0245
     21 C          62.4825   82.1470   11.9849 C.3     1  UNL1        0.0245
@<TRIPOS>BOND
     1    12    13    1
     2    13    14   ar
     3    14    15   ar
     4    15    16   ar
     5    16    17   ar
     6    17     1    1
     7     1     2   ar
     8     2     3   ar
     9     3     4   ar
    10     4     5   ar
    11     5     6    1
    12     5     7   ar
    13     7     8    1
    14     7     9   ar
    15     9    10   ar
    16    10    11   ar
    17    11    19    1
    18    19    20    1
    19    20    21    1
    20    17    18   ar
    21    18    13   ar
    22    11     1   ar
    23    21    19    1
    24    10     3   ar
@<TRIPOS>MOLECULE
*****
 21 24 0 0 0
SMALL
GASTEIGER

@<TRIPOS>ATOM
      1 C          45.4617   75.7097   17.6329 C.ar    1  UNL1        0.1453
      2 N          44.6753   76.8754   17.1108 N.ar    1  UNL1       -0.2267
      3 C          45.3718   78.1332   17.5383 C.ar    1  UNL1        0.1010
      4 C          45.0552   79.5820   17.3131 C.ar    1  UNL1        0.0526
      5 C          45.9555   80.6424   17.8743 C.ar    1  UNL1        0.1690
      6 F          45.6389   82.0913   17.6491 F       1  UNL1       -0.2017
      7 C          47.1724   80.2541   18.6607 C.ar    1  UNL1        0.1689
      8 F          48.0726   81.3146   19.2219 F       1  UNL1       -0.2017
      9 C          47.4890   78.8053   18.8859 C.ar    1  UNL1        0.0507
     10 C          46.5887   77.7449   18.3247 C.ar    1  UNL1        0.0812
     11 N          46.6442   76.2471   18.3831 N.ar    1  UNL1       -0.3132
     12 F          45.1327   71.5397   14.5501 F       1  UNL1       -0.2025
     13 C          44.9602   72.1760   15.8976 C.ar    1  UNL1        0.1593
     14 C          44.4508   71.3635   17.0509 C.ar    1  UNL1        0.1284
     15 N          44.2783   71.9997   18.3983 N.ar    1  UNL1       -0.2399
     16 C          44.6153   73.4485   18.5923 C.ar    1  UNL1        0.1020
     17 C          45.1247   74.2609   17.4389 C.ar    1  UNL1        0.0555
     18 C          45.2972   73.6247   16.0916 C.ar    1  UNL1        0.0358
     19 C          47.6974   75.4300   19.0711 C.3     1  UNL1        0.0870
     20 C          48.2806   74.0937   19.4238 C.3     1  UNL1        0.0245
     21 C          48.9384   75.3511   19.9100 C.3     1  UNL1        0.0245
@<TRIPOS>BOND
     1    12    13    1
     2    13    14   ar
     3    14    15   ar
     4    15    16   ar
     5    16    17   ar
     6    17     1    1
     7     1     2   ar
     8     2     3   ar
     9     3     4   ar
    10     4     5   ar
    11     5     6    1
    12     5     7   ar
    13     7     8    1
    14     7     9   ar
    15     9    10   ar
    16    10    11   ar
    17    11    19    1
    18    19    20    1
    19    20    21    1
    20    17    18   ar
    21    18    13   ar
    22    11     1   ar
    23    21    19    1
    24    10     3   ar
@<TRIPOS>MOLECULE
*****
 21 24 0 0 0
SMALL
GASTEIGER

@<TRIPOS>ATOM
      1 C          62.3153   85.5235   12.0570 C.ar    1  UNL1        0.1453
      2 N          61.3028   86.5502   11.6437 N.ar    1  UNL1       -0.2267
      3 C          61.0444   86.3818   10.1758 C.ar    1  UNL1        0.1010
      4 C          60.1428   87.1121    9.2251 C.ar    1  UNL1        0.0526
      5 C          60.0939   86.7115    7.7804 C.ar    1  UNL1        0.1690
      6 F          59.1923   87.4417    6.8297 F       1  UNL1       -0.2017
      7 C          60.9467   85.5807    7.2864 C.ar    1  UNL1        0.1689
      8 F          60.8979   85.1801    5.8417 F       1  UNL1       -0.2017
      9 C          61.8484   84.8505    8.2371 C.ar    1  UNL1        0.0507
     10 C          61.8972   85.2510    9.6818 C.ar    1  UNL1        0.0812
     11 N          62.6826   84.7206   10.8444 N.ar    1  UNL1       -0.3132
     12 F          66.0846   86.2983   15.5487 F       1  UNL1       -0.2025
     13 C          64.7486   85.7206   15.1859 C.ar    1  UNL1        0.1593
     14 C          63.9615   84.9526   16.2059 C.ar    1  UNL1        0.1284
     15 N          62.6257   84.3749   15.8430 N.ar    1  UNL1       -0.2399
     16 C          62.0769   84.5652   14.4601 C.ar    1  UNL1        0.1020
     17 C          62.8640   85.3332   13.4400 C.ar    1  UNL1        0.0555
     18 C          64.1999   85.9109   13.8029 C.ar    1  UNL1        0.0358
     19 C          63.6633   83.5863   10.8019 C.3     1  UNL1        0.0870
     20 C          64.6649   82.7085   11.4921 C.3     1  UNL1        0.0245
     21 C          64.3602   82.4996   10.0383 C.3     1  UNL1        0.0245
@<TRIPOS>BOND
     1    12    13    1
     2    13    14   ar
     3    14    15   ar
     4    15    16   ar
     5    16    17   ar
     6    17     1    1
     7     1     2   ar
     8     2     3   ar
     9     3     4   ar
    10     4     5   ar
    11     5     6    1
    12     5     7   ar
    13     7     8    1
    14     7     9   ar
    15     9    10   ar
    16    10    11   ar
    17    11    19    1
    18    19    20    1
    19    20    21    1
    20    17    18   ar
    21    18    13   ar
    22    11     1   ar
    23    21    19    1
    24    10     3   ar
