@<TRIPOS>MOLECULE
*****
 22 24 0 0 0
SMALL
GASTEIGER

@<TRIPOS>ATOM
      1 N          66.9751   93.4087   13.2148 N.pl3   1  UNL1       -0.3375
      2 C          65.8279   92.6111   12.6692 C.ar    1  UNL1        0.1567
      3 N          65.2786   92.6959   11.2760 N.ar    1  UNL1       -0.2245
      4 C          64.1398   91.7258   11.1668 C.ar    1  UNL1        0.0894
      5 C          63.2235   91.3772   10.0315 C.ar    1  UNL1        0.0228
      6 C          62.1528   90.3442   10.2220 C.ar    1  UNL1        0.0385
      7 C          61.9982   89.6598   11.5477 C.ar    1  UNL1        0.1397
      8 C          62.9145   90.0083   12.6830 C.ar    1  UNL1        0.0450
      9 C          63.9852   91.0413   12.4926 C.ar    1  UNL1        0.0527
     10 S          65.0285   91.5885   13.4211 S.2     1  UNL1       -0.0519
     11 H          67.4394   94.0595   12.6402 H       1  UNL1        0.1442
     12 H          67.2638   93.2815   14.1474 H       1  UNL1        0.1442
     13 O          60.9274   88.6267   11.7381 O.3     1  UNL1       -0.4706
     14 C          60.6603   87.6163   10.6622 C.3     1  UNL1        0.2320
     15 C          61.5798   86.4438   10.4894 C.ar    1  UNL1        0.0221
     16 C          62.1925   86.1622    9.1496 C.ar    1  UNL1        0.0002
     17 C          63.1120   84.9898    8.9768 C.ar    1  UNL1        0.0120
     18 C          63.4188   84.0989   10.1439 C.ar    1  UNL1        0.0682
     19 CL         64.3383   82.9264    9.9711 Cl      1  UNL1       -0.0814
     20 C          62.8060   84.3804   11.4838 C.ar    1  UNL1        0.0680
     21 CL         63.1128   83.4895   12.6509 Cl      1  UNL1       -0.0814
     22 C          61.8866   85.5528   11.6565 C.ar    1  UNL1        0.0116
@<TRIPOS>BOND
     1     1     2    1
     2     2     3   ar
     3     3     4   ar
     4     4     5   ar
     5     5     6   ar
     6     6     7   ar
     7     7    13    1
     8    13    14    1
     9    14    15    1
    10    15    16   ar
    11    16    17   ar
    12    17    18   ar
    13    18    19    1
    14    18    20   ar
    15    20    21    1
    16    20    22   ar
    17     7     8   ar
    18     8     9   ar
    19     9    10   ar
    20    10     2   ar
    21     9     4   ar
    22    22    15   ar
    23     1    11    1
    24     1    12    1
@<TRIPOS>MOLECULE
*****
 22 24 0 0 0
SMALL
GASTEIGER

@<TRIPOS>ATOM
      1 N          67.2507   93.1640   13.7817 N.pl3   1  UNL1       -0.3375
      2 C          66.0848   92.4429   13.1728 C.ar    1  UNL1        0.1567
      3 N          65.5509   92.6436   11.7854 N.ar    1  UNL1       -0.2245
      4 C          64.3843   91.7193   11.5995 C.ar    1  UNL1        0.0894
      5 C          63.4682   91.4809   10.4359 C.ar    1  UNL1        0.0228
      6 C          62.3650   90.4705   10.5447 C.ar    1  UNL1        0.0385
      7 C          62.1778   89.6986   11.8172 C.ar    1  UNL1        0.1397
      8 C          63.0938   89.9370   12.9807 C.ar    1  UNL1        0.0450
      9 C          64.1971   90.9474   12.8719 C.ar    1  UNL1        0.0527
     10 S          65.2481   91.3946   13.8442 S.2     1  UNL1       -0.0519
     11 H          67.7397   93.8394   13.2583 H       1  UNL1        0.1442
     12 H          67.5269   92.9618   14.7048 H       1  UNL1        0.1442
     13 O          61.0744   88.6881   11.9260 O.3     1  UNL1       -0.4706
     14 C          60.1163   88.4984   10.7876 C.3     1  UNL1        0.2320
     15 C          60.4359   87.5241    9.6927 C.ar    1  UNL1        0.0221
     16 C          59.4296   87.2512    8.6143 C.ar    1  UNL1        0.0002
     17 C          59.7492   86.2770    7.5195 C.ar    1  UNL1        0.0120
     18 C          61.0751   85.5757    7.5030 C.ar    1  UNL1        0.0682
     19 CL         61.3947   84.6015    6.4081 Cl      1  UNL1       -0.0814
     20 C          62.0813   85.8487    8.5814 C.ar    1  UNL1        0.0680
     21 CL         63.4072   85.1474    8.5649 Cl      1  UNL1       -0.0814
     22 C          61.7617   86.8228    9.6762 C.ar    1  UNL1        0.0116
@<TRIPOS>BOND
     1     1     2    1
     2     2     3   ar
     3     3     4   ar
     4     4     5   ar
     5     5     6   ar
     6     6     7   ar
     7     7    13    1
     8    13    14    1
     9    14    15    1
    10    15    16   ar
    11    16    17   ar
    12    17    18   ar
    13    18    19    1
    14    18    20   ar
    15    20    21    1
    16    20    22   ar
    17     7     8   ar
    18     8     9   ar
    19     9    10   ar
    20    10     2   ar
    21     9     4   ar
    22    22    15   ar
    23     1    11    1
    24     1    12    1
@<TRIPOS>MOLECULE
*****
 22 24 0 0 0
SMALL
GASTEIGER

@<TRIPOS>ATOM
      1 N          67.2718   95.1528   10.4348 N.pl3   1  UNL1       -0.3375
      2 C          66.5319   94.0442   11.1231 C.ar    1  UNL1        0.1567
      3 N          66.8191   93.5117   12.4956 N.ar    1  UNL1       -0.2245
      4 C          65.8397   92.4119   12.7805 C.ar    1  UNL1        0.0894
      5 C          65.6452   91.5255   13.9748 C.ar    1  UNL1        0.0228
      6 C          64.5583   90.4919   13.9726 C.ar    1  UNL1        0.0385
      7 C          63.6658   90.3446   12.7760 C.ar    1  UNL1        0.1397
      8 C          63.8602   91.2310   11.5817 C.ar    1  UNL1        0.0450
      9 C          64.9472   92.2646   11.5839 C.ar    1  UNL1        0.0527
     10 S          65.3750   93.2735   10.5596 S.2     1  UNL1       -0.0519
     11 H          68.0219   95.6003   10.8891 H       1  UNL1        0.1442
     12 H          67.0073   95.4329    9.5288 H       1  UNL1        0.1442
     13 O          62.5787   89.3109   12.7738 O.3     1  UNL1       -0.4706
     14 C          61.3384   89.5286   11.9589 C.3     1  UNL1        0.2320
     15 C          61.0099   88.5975   10.8296 C.ar    1  UNL1        0.0221
     16 C          61.3817   87.1472   10.9210 C.ar    1  UNL1        0.0002
     17 C          61.0532   86.2162    9.7918 C.ar    1  UNL1        0.0120
     18 C          60.3529   86.7355    8.5711 C.ar    1  UNL1        0.0682
     19 CL         60.0244   85.8044    7.4418 Cl      1  UNL1       -0.0814
     20 C          59.9811   88.1858    8.4797 C.ar    1  UNL1        0.0680
     21 CL         59.2809   88.7051    7.2591 Cl      1  UNL1       -0.0814
     22 C          60.3096   89.1168    9.6090 C.ar    1  UNL1        0.0116
@<TRIPOS>BOND
     1     1     2    1
     2     2     3   ar
     3     3     4   ar
     4     4     5   ar
     5     5     6   ar
     6     6     7   ar
     7     7    13    1
     8    13    14    1
     9    14    15    1
    10    15    16   ar
    11    16    17   ar
    12    17    18   ar
    13    18    19    1
    14    18    20   ar
    15    20    21    1
    16    20    22   ar
    17     7     8   ar
    18     8     9   ar
    19     9    10   ar
    20    10     2   ar
    21     9     4   ar
    22    22    15   ar
    23     1    11    1
    24     1    12    1
@<TRIPOS>MOLECULE
*****
 22 24 0 0 0
SMALL
GASTEIGER

@<TRIPOS>ATOM
      1 N          63.7376   81.3078   14.1785 N.pl3   1  UNL1       -0.3375
      2 C          63.4985   82.3131   13.0912 C.ar    1  UNL1        0.1567
      3 N          63.9200   82.1787   11.6579 N.ar    1  UNL1       -0.2245
      4 C          63.4779   83.4117   10.9271 C.ar    1  UNL1        0.0894
      5 C          63.6182   83.8340    9.4946 C.ar    1  UNL1        0.0228
      6 C          63.0638   85.1528    9.0438 C.ar    1  UNL1        0.0385
      7 C          62.3691   86.0494   10.0254 C.ar    1  UNL1        0.1397
      8 C          62.2287   85.6271   11.4578 C.ar    1  UNL1        0.0450
      9 C          62.7832   84.3083   11.9087 C.ar    1  UNL1        0.0527
     10 S          62.7959   83.6292   13.2461 S.2     1  UNL1       -0.0519
     11 H          64.2109   80.4683   13.9774 H       1  UNL1        0.1442
     12 H          63.4211   81.4875   15.0933 H       1  UNL1        0.1442
     13 O          61.8146   87.3682    9.5745 O.3     1  UNL1       -0.4706
     14 C          61.4022   88.3944   10.5879 C.3     1  UNL1        0.2320
     15 C          62.3880   89.4228   11.0578 C.ar    1  UNL1        0.0221
     16 C          62.7505   90.5754   10.1689 C.ar    1  UNL1        0.0002
     17 C          63.7362   91.6037   10.6388 C.ar    1  UNL1        0.0120
     18 C          64.3593   91.4795   11.9976 C.ar    1  UNL1        0.0682
     19 CL         65.3450   92.5080   12.4675 Cl      1  UNL1       -0.0814
     20 C          63.9968   90.3270   12.8865 C.ar    1  UNL1        0.0680
     21 CL         64.6199   90.2028   14.2453 Cl      1  UNL1       -0.0814
     22 C          63.0111   89.2986   12.4166 C.ar    1  UNL1        0.0116
@<TRIPOS>BOND
     1     1     2    1
     2     2     3   ar
     3     3     4   ar
     4     4     5   ar
     5     5     6   ar
     6     6     7   ar
     7     7    13    1
     8    13    14    1
     9    14    15    1
    10    15    16   ar
    11    16    17   ar
    12    17    18   ar
    13    18    19    1
    14    18    20   ar
    15    20    21    1
    16    20    22   ar
    17     7     8   ar
    18     8     9   ar
    19     9    10   ar
    20    10     2   ar
    21     9     4   ar
    22    22    15   ar
    23     1    11    1
    24     1    12    1
@<TRIPOS>MOLECULE
*****
 22 24 0 0 0
SMALL
GASTEIGER

@<TRIPOS>ATOM
      1 N          61.0918   87.6159    9.5229 N.pl3   1  UNL1       -0.3375
      2 C          61.9224   88.3052   10.5645 C.ar    1  UNL1        0.1567
      3 N          62.5171   87.6650   11.7837 N.ar    1  UNL1       -0.2245
      4 C          63.2663   88.7198   12.5425 C.ar    1  UNL1        0.0894
      5 C          64.0514   88.6707   13.8197 C.ar    1  UNL1        0.0228
      6 C          64.7049   89.9137   14.3466 C.ar    1  UNL1        0.0385
      7 C          64.5733   91.2060   13.5964 C.ar    1  UNL1        0.1397
      8 C          63.7882   91.2551   12.3192 C.ar    1  UNL1        0.0450
      9 C          63.1347   90.0121   11.7923 C.ar    1  UNL1        0.0527
     10 S          62.3041   89.7558   10.5698 S.2     1  UNL1       -0.0519
     11 H          60.8941   86.6551    9.6075 H       1  UNL1        0.1442
     12 H          60.7445   88.1241    8.7546 H       1  UNL1        0.1442
     13 O          65.2268   92.4491   14.1234 O.3     1  UNL1       -0.4706
     14 C          66.5900   92.8435   13.6374 C.3     1  UNL1        0.2320
     15 C          66.7733   93.3275   12.2295 C.ar    1  UNL1        0.0221
     16 C          66.1855   94.6406   11.8053 C.ar    1  UNL1        0.0002
     17 C          66.3688   95.1246   10.3974 C.ar    1  UNL1        0.0120
     18 C          67.1400   94.2953    9.4137 C.ar    1  UNL1        0.0682
     19 CL         67.3234   94.7793    8.0058 Cl      1  UNL1       -0.0814
     20 C          67.7278   92.9821    9.8379 C.ar    1  UNL1        0.0680
     21 CL         68.4990   92.1529    8.8542 Cl      1  UNL1       -0.0814
     22 C          67.5445   92.4982   11.2458 C.ar    1  UNL1        0.0116
@<TRIPOS>BOND
     1     1     2    1
     2     2     3   ar
     3     3     4   ar
     4     4     5   ar
     5     5     6   ar
     6     6     7   ar
     7     7    13    1
     8    13    14    1
     9    14    15    1
    10    15    16   ar
    11    16    17   ar
    12    17    18   ar
    13    18    19    1
    14    18    20   ar
    15    20    21    1
    16    20    22   ar
    17     7     8   ar
    18     8     9   ar
    19     9    10   ar
    20    10     2   ar
    21     9     4   ar
    22    22    15   ar
    23     1    11    1
    24     1    12    1
@<TRIPOS>MOLECULE
*****
 22 24 0 0 0
SMALL
GASTEIGER

@<TRIPOS>ATOM
      1 N          66.8816   94.6444   11.1455 N.pl3   1  UNL1       -0.3375
      2 C          66.0937   93.4548   11.6083 C.ar    1  UNL1        0.1567
      3 N          64.9914   92.7778   10.8490 N.ar    1  UNL1       -0.2245
      4 C          64.4861   91.6380   11.6830 C.ar    1  UNL1        0.0894
      5 C          63.4087   90.6216   11.4463 C.ar    1  UNL1        0.0228
      6 C          63.1214   89.5777   12.4845 C.ar    1  UNL1        0.0385
      7 C          63.9115   89.5503   13.7592 C.ar    1  UNL1        0.1397
      8 C          64.9889   90.5667   13.9959 C.ar    1  UNL1        0.0450
      9 C          65.2762   91.6106   12.9578 C.ar    1  UNL1        0.0527
     10 S          66.2697   92.7334   12.9115 S.2     1  UNL1       -0.0519
     11 H          66.6911   95.0503   10.2691 H       1  UNL1        0.1442
     12 H          67.5893   95.0192   11.7182 H       1  UNL1        0.1442
     13 O          63.6241   88.5064   14.7974 O.3     1  UNL1       -0.4706
     14 C          64.4636   87.2652   14.8653 C.3     1  UNL1        0.2320
     15 C          63.8363   85.9219   14.6363 C.ar    1  UNL1        0.0221
     16 C          63.4691   85.0565   15.8051 C.ar    1  UNL1        0.0002
     17 C          62.8418   83.7134   15.5760 C.ar    1  UNL1        0.0120
     18 C          62.5818   83.2357   14.1781 C.ar    1  UNL1        0.0682
     19 CL         61.9545   81.8925   13.9490 Cl      1  UNL1       -0.0814
     20 C          62.9489   84.1011   13.0093 C.ar    1  UNL1        0.0680
     21 CL         62.6888   83.6234   11.6114 Cl      1  UNL1       -0.0814
     22 C          63.5762   85.4442   13.2384 C.ar    1  UNL1        0.0116
@<TRIPOS>BOND
     1     1     2    1
     2     2     3   ar
     3     3     4   ar
     4     4     5   ar
     5     5     6   ar
     6     6     7   ar
     7     7    13    1
     8    13    14    1
     9    14    15    1
    10    15    16   ar
    11    16    17   ar
    12    17    18   ar
    13    18    19    1
    14    18    20   ar
    15    20    21    1
    16    20    22   ar
    17     7     8   ar
    18     8     9   ar
    19     9    10   ar
    20    10     2   ar
    21     9     4   ar
    22    22    15   ar
    23     1    11    1
    24     1    12    1
@<TRIPOS>MOLECULE
*****
 22 24 0 0 0
SMALL
GASTEIGER

@<TRIPOS>ATOM
      1 N          68.4811   93.3811   16.0574 N.pl3   1  UNL1       -0.3375
      2 C          67.4872   92.9567   15.0172 C.ar    1  UNL1        0.1567
      3 N          67.5114   93.3385   13.5668 N.ar    1  UNL1       -0.2245
      4 C          66.3338   92.6937   12.8979 C.ar    1  UNL1        0.0894
      5 C          65.8491   92.7164   11.4786 C.ar    1  UNL1        0.0228
      6 C          64.6124   91.9587   11.0963 C.ar    1  UNL1        0.0385
      7 C          63.8603   91.1783   12.1333 C.ar    1  UNL1        0.1397
      8 C          64.3450   91.1556   13.5526 C.ar    1  UNL1        0.0450
      9 C          65.5817   91.9133   13.9349 C.ar    1  UNL1        0.0527
     10 S          66.2945   92.0758   15.2447 S.2     1  UNL1       -0.0519
     11 H          69.2347   93.9639   15.8094 H       1  UNL1        0.1442
     12 H          68.3797   93.0768   16.9882 H       1  UNL1        0.1442
     13 O          62.6235   90.4205   11.7508 O.3     1  UNL1       -0.4706
     14 C          62.6272   88.9206   11.7691 C.3     1  UNL1        0.2320
     15 C          61.9226   88.1557   10.6881 C.ar    1  UNL1        0.0221
     16 C          62.0585   86.6637   10.6146 C.ar    1  UNL1        0.0002
     17 C          61.3539   85.8988    9.5336 C.ar    1  UNL1        0.0120
     18 C          60.5135   86.6259    8.5261 C.ar    1  UNL1        0.0682
     19 CL         59.8090   85.8609    7.4451 Cl      1  UNL1       -0.0814
     20 C          60.3776   88.1179    8.5996 C.ar    1  UNL1        0.0680
     21 CL         59.5372   88.8450    7.5921 Cl      1  UNL1       -0.0814
     22 C          61.0822   88.8828    9.6806 C.ar    1  UNL1        0.0116
@<TRIPOS>BOND
     1     1     2    1
     2     2     3   ar
     3     3     4   ar
     4     4     5   ar
     5     5     6   ar
     6     6     7   ar
     7     7    13    1
     8    13    14    1
     9    14    15    1
    10    15    16   ar
    11    16    17   ar
    12    17    18   ar
    13    18    19    1
    14    18    20   ar
    15    20    21    1
    16    20    22   ar
    17     7     8   ar
    18     8     9   ar
    19     9    10   ar
    20    10     2   ar
    21     9     4   ar
    22    22    15   ar
    23     1    11    1
    24     1    12    1
@<TRIPOS>MOLECULE
*****
 22 24 0 0 0
SMALL
GASTEIGER

@<TRIPOS>ATOM
      1 N          66.9900   93.4739   14.0347 N.pl3   1  UNL1       -0.3375
      2 C          65.9771   92.5899   13.3694 C.ar    1  UNL1        0.1567
      3 N          65.4212   92.7705   11.9879 N.ar    1  UNL1       -0.2245
      4 C          64.4428   91.6624   11.7335 C.ar    1  UNL1        0.0894
      5 C          63.5900   91.3296   10.5452 C.ar    1  UNL1        0.0228
      6 C          62.6884   90.1313   10.5811 C.ar    1  UNL1        0.0385
      7 C          62.6397   89.2658   11.8053 C.ar    1  UNL1        0.1397
      8 C          63.4924   89.5986   12.9935 C.ar    1  UNL1        0.0450
      9 C          64.3940   90.7969   12.9576 C.ar    1  UNL1        0.0527
     10 S          65.3423   91.3702   13.9686 S.2     1  UNL1       -0.0519
     11 H          67.3501   94.2559   13.5572 H       1  UNL1        0.1442
     12 H          67.2947   93.2721   14.9488 H       1  UNL1        0.1442
     13 O          61.7380   88.0675   11.8412 O.3     1  UNL1       -0.4706
     14 C          61.9807   86.9182   10.9084 C.3     1  UNL1        0.2320
     15 C          62.5050   85.6177   11.4411 C.ar    1  UNL1        0.0221
     16 C          62.4748   85.3445   12.9157 C.ar    1  UNL1        0.0002
     17 C          62.9991   84.0440   13.4483 C.ar    1  UNL1        0.0120
     18 C          63.5536   83.0167   12.5064 C.ar    1  UNL1        0.0682
     19 CL         64.0779   81.7161   13.0391 Cl      1  UNL1       -0.0814
     20 C          63.5838   83.2899   11.0318 C.ar    1  UNL1        0.0680
     21 CL         64.1383   82.2626   10.0899 Cl      1  UNL1       -0.0814
     22 C          63.0595   84.5904   10.4992 C.ar    1  UNL1        0.0116
@<TRIPOS>BOND
     1     1     2    1
     2     2     3   ar
     3     3     4   ar
     4     4     5   ar
     5     5     6   ar
     6     6     7   ar
     7     7    13    1
     8    13    14    1
     9    14    15    1
    10    15    16   ar
    11    16    17   ar
    12    17    18   ar
    13    18    19    1
    14    18    20   ar
    15    20    21    1
    16    20    22   ar
    17     7     8   ar
    18     8     9   ar
    19     9    10   ar
    20    10     2   ar
    21     9     4   ar
    22    22    15   ar
    23     1    11    1
    24     1    12    1
@<TRIPOS>MOLECULE
*****
 22 24 0 0 0
SMALL
GASTEIGER

@<TRIPOS>ATOM
      1 N          63.2283   80.6422   14.1697 N.pl3   1  UNL1       -0.3375
      2 C          63.3975   82.1318   14.1198 C.ar    1  UNL1        0.1567
      3 N          64.0399   82.9821   15.1755 N.ar    1  UNL1       -0.2245
      4 C          63.9935   84.4084   14.7136 C.ar    1  UNL1        0.0894
      5 C          64.4756   85.6828   15.3410 C.ar    1  UNL1        0.0228
      6 C          64.2866   86.9884   14.6272 C.ar    1  UNL1        0.0385
      7 C          63.6155   87.0197   13.2861 C.ar    1  UNL1        0.1397
      8 C          63.1334   85.7454   12.6587 C.ar    1  UNL1        0.0450
      9 C          63.3224   84.4398   13.3725 C.ar    1  UNL1        0.0527
     10 S          62.9541   83.0327   13.0055 S.2     1  UNL1       -0.0519
     11 H          63.5542   80.1356   14.9484 H       1  UNL1        0.1442
     12 H          62.7913   80.1712   13.4238 H       1  UNL1        0.1442
     13 O          63.4265   88.3255   12.5723 O.3     1  UNL1       -0.4706
     14 C          63.4473   89.6117   13.3436 C.3     1  UNL1        0.2320
     15 C          64.1896   90.7982   12.8038 C.ar    1  UNL1        0.0221
     16 C          63.9910   91.2223   11.3788 C.ar    1  UNL1        0.0002
     17 C          64.7334   92.4087   10.8390 C.ar    1  UNL1        0.0120
     18 C          65.6744   93.1709   11.7242 C.ar    1  UNL1        0.0682
     19 CL         66.4167   94.3573   11.1844 Cl      1  UNL1       -0.0814
     20 C          65.8730   92.7468   13.1492 C.ar    1  UNL1        0.0680
     21 CL         66.8139   93.5090   14.0344 Cl      1  UNL1       -0.0814
     22 C          65.1306   91.5604   13.6890 C.ar    1  UNL1        0.0116
@<TRIPOS>BOND
     1     1     2    1
     2     2     3   ar
     3     3     4   ar
     4     4     5   ar
     5     5     6   ar
     6     6     7   ar
     7     7    13    1
     8    13    14    1
     9    14    15    1
    10    15    16   ar
    11    16    17   ar
    12    17    18   ar
    13    18    19    1
    14    18    20   ar
    15    20    21    1
    16    20    22   ar
    17     7     8   ar
    18     8     9   ar
    19     9    10   ar
    20    10     2   ar
    21     9     4   ar
    22    22    15   ar
    23     1    11    1
    24     1    12    1
