@<TRIPOS>MOLECULE
*****
 37 40 0 0 0
SMALL
GASTEIGER

@<TRIPOS>ATOM
      1 C          63.0727   90.2521   12.4876 C.3     1  UNL1        0.2549
      2 O          63.3008   91.2736   11.4131 O.3     1  UNL1       -0.3278
      3 C          64.5083   92.1618   11.4669 C.3     1  UNL1        0.1621
      4 C          65.4877   92.0286   12.5952 C.3     1  UNL1        0.1054
      5 N          65.2596   91.0072   13.6697 N.3     1  UNL1       -0.2536
      6 C          64.0521   90.1189   13.6159 C.3     1  UNL1        0.1378
      7 C          63.8240   89.0974   14.6905 C.ar    1  UNL1       -0.0027
      8 C          63.1642   89.4968   15.9770 C.ar    1  UNL1       -0.0005
      9 C          62.9361   88.4754   17.0515 C.ar    1  UNL1        0.0294
     10 C          63.3678   87.0545   16.8395 C.ar    1  UNL1        0.1401
     11 F          63.1396   86.0331   17.9140 F       1  UNL1       -0.2042
     12 C          64.0275   86.6552   15.5530 C.ar    1  UNL1        0.0294
     13 C          64.2557   87.6767   14.4784 C.ar    1  UNL1       -0.0005
     14 O          61.8652   89.3638   12.4339 O.3     1  UNL1       -0.3272
     15 C          60.5096   89.5976   10.2299 C.3     1  UNL1        0.0371
     16 C          61.4098   88.7957   11.1225 C.3     1  UNL1        0.1401
     17 C          61.8546   87.4258   10.7036 C.ar    1  UNL1        0.0045
     18 C          62.4373   86.4843   11.7156 C.ar    1  UNL1        0.0019
     19 C          62.8821   85.1144   11.2968 C.ar    1  UNL1        0.0711
     20 C          62.7442   84.6860    9.8659 C.ar    1  UNL1        0.0077
     21 C          62.1616   85.6274    8.8539 C.ar    1  UNL1        0.0711
     22 C          61.7168   86.9973    9.2727 C.ar    1  UNL1        0.0019
     23 C          63.4648   84.1730   12.3088 C.3     1  UNL1        0.4186
     24 F          64.0475   83.2316   13.3208 F       1  UNL1       -0.1659
     25 F          64.3984   83.6312   11.2672 F       1  UNL1       -0.1659
     26 F          62.5312   84.7148   13.3504 F       1  UNL1       -0.1659
     27 C          62.0237   85.1989    7.4230 C.3     1  UNL1        0.4186
     28 F          61.8859   84.7703    5.9922 F       1  UNL1       -0.1659
     29 F          60.7226   85.9389    7.3267 F       1  UNL1       -0.1659
     30 F          63.3249   84.4589    7.5193 F       1  UNL1       -0.1659
     31 C          66.2390   90.8740   14.7980 C.3     1  UNL1        0.1982
     32 C          67.3273   91.8918   14.9705 C.2     1  UNL1        0.3874
     33 N          68.6065   91.9558   14.1898 N.2     1  UNL1        0.0769
     34 N          69.3973   93.1279   14.6908 N.am    1  UNL1        0.0819
     35 C          68.6068   93.7882   15.7813 C.2     1  UNL1        0.4954
     36 O          69.0225   94.9997   16.5618 O.2     1  UNL1       -0.2139
     37 N          67.3275   93.0243   15.9541 N.am    1  UNL1        0.0540
@<TRIPOS>BOND
     1    16    15    1
     2    16    14    1
     3     1    14    1
     4     1     2    1
     5     2     3    1
     6     3     4    1
     7     4     5    1
     8     5    31    1
     9    31    32    1
    10    32    33    1
    11    33    34    2
    12    34    35    1
    13    35    36    2
    14    35    37    1
    15     5     6    1
    16     6     7    1
    17     7     8   ar
    18     8     9   ar
    19     9    10   ar
    20    10    11    1
    21    10    12   ar
    22    12    13   ar
    23    16    17    1
    24    17    18   ar
    25    18    19   ar
    26    19    23    1
    27    23    24    1
    28    23    25    1
    29    23    26    1
    30    19    20   ar
    31    20    21   ar
    32    21    27    1
    33    27    28    1
    34    27    29    1
    35    27    30    1
    36    21    22   ar
    37     6     1    1
    38    13     7   ar
    39    22    17   ar
    40    37    32    2
@<TRIPOS>MOLECULE
*****
 37 40 0 0 0
SMALL
GASTEIGER

@<TRIPOS>ATOM
      1 C          63.0708   90.2447   12.4897 C.3     1  UNL1        0.2549
      2 O          63.2958   91.2686   11.4170 O.3     1  UNL1       -0.3278
      3 C          64.4960   92.1664   11.4770 C.3     1  UNL1        0.1621
      4 C          65.4711   92.0401   12.6097 C.3     1  UNL1        0.1054
      5 N          65.2462   91.0161   13.6825 N.3     1  UNL1       -0.2536
      6 C          64.0460   90.1184   13.6225 C.3     1  UNL1        0.1378
      7 C          63.8209   89.0943   14.6952 C.ar    1  UNL1       -0.0027
      8 C          63.1598   89.4894   15.9824 C.ar    1  UNL1       -0.0005
      9 C          62.9348   88.4655   17.0551 C.ar    1  UNL1        0.0294
     10 C          63.3708   87.0463   16.8407 C.ar    1  UNL1        0.1401
     11 F          63.1458   86.0224   17.9135 F       1  UNL1       -0.2042
     12 C          64.0319   86.6512   15.5535 C.ar    1  UNL1        0.0294
     13 C          64.2570   87.6753   14.4808 C.ar    1  UNL1       -0.0005
     14 O          61.8706   89.3469   12.4298 O.3     1  UNL1       -0.3272
     15 C          60.5243   89.5964   10.2218 C.3     1  UNL1        0.0371
     16 C          61.4179   88.7868   11.1139 C.3     1  UNL1        0.1401
     17 C          61.8590   87.4171   10.6902 C.ar    1  UNL1        0.0045
     18 C          61.7119   86.9909    9.2596 C.ar    1  UNL1        0.0019
     19 C          62.1529   85.6213    8.8358 C.ar    1  UNL1        0.0711
     20 C          62.7411   84.6779    9.8428 C.ar    1  UNL1        0.0077
     21 C          62.8882   85.1040   11.2734 C.ar    1  UNL1        0.0711
     22 C          62.4472   86.4737   11.6971 C.ar    1  UNL1        0.0019
     23 C          62.0058   85.1951    7.4052 C.3     1  UNL1        0.4186
     24 F          61.8586   84.7689    5.9746 F       1  UNL1       -0.1659
     25 F          60.6884   85.9083    7.3282 F       1  UNL1       -0.1659
     26 F          63.3231   84.4819    7.4822 F       1  UNL1       -0.1659
     27 C          63.4764   84.1605   12.2803 C.3     1  UNL1        0.4186
     28 F          64.0647   83.2170   13.2872 F       1  UNL1       -0.1659
     29 F          62.5698   84.7213   13.3355 F       1  UNL1       -0.1659
     30 F          64.3831   83.5997   11.2251 F       1  UNL1       -0.1659
     31 C          66.2213   90.8898   14.8152 C.3     1  UNL1        0.1982
     32 C          67.3150   91.9031   14.9797 C.2     1  UNL1        0.3874
     33 N          68.5864   91.9649   14.1861 N.2     1  UNL1        0.0769
     34 N          69.3866   93.1325   14.6827 N.am    1  UNL1        0.0819
     35 C          68.6097   93.7923   15.7833 C.2     1  UNL1        0.4954
     36 O          69.0379   94.9997   16.5633 O.2     1  UNL1       -0.2139
     37 N          67.3295   93.0325   15.9669 N.am    1  UNL1        0.0540
@<TRIPOS>BOND
     1    16    15    1
     2    16    14    1
     3     1    14    1
     4     1     2    1
     5     2     3    1
     6     3     4    1
     7     4     5    1
     8     5    31    1
     9    31    32    1
    10    32    33    1
    11    33    34    2
    12    34    35    1
    13    35    36    2
    14    35    37    1
    15     5     6    1
    16     6     7    1
    17     7     8   ar
    18     8     9   ar
    19     9    10   ar
    20    10    11    1
    21    10    12   ar
    22    12    13   ar
    23    16    17    1
    24    17    18   ar
    25    18    19   ar
    26    19    23    1
    27    23    24    1
    28    23    25    1
    29    23    26    1
    30    19    20   ar
    31    20    21   ar
    32    21    27    1
    33    27    28    1
    34    27    29    1
    35    27    30    1
    36    21    22   ar
    37     6     1    1
    38    13     7   ar
    39    22    17   ar
    40    37    32    2
@<TRIPOS>MOLECULE
*****
 37 40 0 0 0
SMALL
GASTEIGER

@<TRIPOS>ATOM
      1 C          63.0249   88.5543   12.9249 C.3     1  UNL1        0.2549
      2 O          63.8922   88.5415   14.1486 O.3     1  UNL1       -0.3278
      3 C          64.4442   87.2451   14.6630 C.3     1  UNL1        0.1621
      4 C          64.1288   85.9616   13.9537 C.3     1  UNL1        0.1054
      5 N          63.2615   85.9744   12.7300 N.3     1  UNL1       -0.2536
      6 C          62.7095   87.2708   12.2156 C.3     1  UNL1        0.1378
      7 C          61.8421   87.2837   10.9918 C.ar    1  UNL1       -0.0027
      8 C          62.3645   86.7367    9.6965 C.ar    1  UNL1       -0.0005
      9 C          61.4972   86.7495    8.4728 C.ar    1  UNL1        0.0294
     10 C          60.1074   87.3095    8.5443 C.ar    1  UNL1        0.1401
     11 F          59.2401   87.3224    7.3206 F       1  UNL1       -0.2042
     12 C          59.5850   87.8565    9.8396 C.ar    1  UNL1        0.0294
     13 C          60.4524   87.8436   11.0634 C.ar    1  UNL1       -0.0005
     14 O          62.4729   89.8508   12.4104 O.3     1  UNL1       -0.3272
     15 C          62.8753   90.5660    9.9453 C.3     1  UNL1        0.0371
     16 C          63.2434   90.6446   11.3973 C.3     1  UNL1        0.1401
     17 C          64.3819   91.5170   11.8363 C.ar    1  UNL1        0.0045
     18 C          65.1677   92.2921   10.8206 C.ar    1  UNL1        0.0019
     19 C          66.3062   93.1645   11.2596 C.ar    1  UNL1        0.0711
     20 C          66.6589   93.2618   12.7142 C.ar    1  UNL1        0.0077
     21 C          65.8730   92.4867   13.7300 C.ar    1  UNL1        0.0711
     22 C          64.7345   91.6143   13.2910 C.ar    1  UNL1        0.0019
     23 C          67.0921   93.9395   10.2438 C.3     1  UNL1        0.4186
     24 F          67.8779   94.7146    9.2281 F       1  UNL1       -0.1659
     25 F          67.4401   92.6623    9.5385 F       1  UNL1       -0.1659
     26 F          66.7441   95.2168   10.9492 F       1  UNL1       -0.1659
     27 C          66.2257   92.5841   15.1847 C.3     1  UNL1        0.4186
     28 F          66.5783   92.6814   16.6394 F       1  UNL1       -0.1659
     29 F          67.0599   93.7980   14.9013 F       1  UNL1       -0.1659
     30 F          65.3914   91.3702   15.4682 F       1  UNL1       -0.1659
     31 C          62.9461   84.6909   12.0207 C.3     1  UNL1        0.1982
     32 C          62.6762   83.4444   12.8102 C.2     1  UNL1        0.3874
     33 N          62.4062   83.3755   14.2841 N.2     1  UNL1        0.0769
     34 N          62.1920   81.9364   14.6494 N.am    1  UNL1        0.0819
     35 C          62.3297   81.1159   13.4011 C.2     1  UNL1        0.4954
     36 O          62.1923   79.6254   13.3062 O.2     1  UNL1       -0.2139
     37 N          62.6289   82.0479   12.2645 N.am    1  UNL1        0.0540
@<TRIPOS>BOND
     1    16    15    1
     2    16    14    1
     3     1    14    1
     4     1     2    1
     5     2     3    1
     6     3     4    1
     7     4     5    1
     8     5    31    1
     9    31    32    1
    10    32    33    1
    11    33    34    2
    12    34    35    1
    13    35    36    2
    14    35    37    1
    15     5     6    1
    16     6     7    1
    17     7     8   ar
    18     8     9   ar
    19     9    10   ar
    20    10    11    1
    21    10    12   ar
    22    12    13   ar
    23    16    17    1
    24    17    18   ar
    25    18    19   ar
    26    19    23    1
    27    23    24    1
    28    23    25    1
    29    23    26    1
    30    19    20   ar
    31    20    21   ar
    32    21    27    1
    33    27    28    1
    34    27    29    1
    35    27    30    1
    36    21    22   ar
    37     6     1    1
    38    13     7   ar
    39    22    17   ar
    40    37    32    2
@<TRIPOS>MOLECULE
*****
 37 40 0 0 0
SMALL
GASTEIGER

@<TRIPOS>ATOM
      1 C          63.0256   88.5506   12.9171 C.3     1  UNL1        0.2549
      2 O          63.8937   88.5397   14.1404 O.3     1  UNL1       -0.3278
      3 C          64.4446   87.2439   14.6574 C.3     1  UNL1        0.1621
      4 C          64.1276   85.9591   13.9512 C.3     1  UNL1        0.1054
      5 N          63.2595   85.9701   12.7279 N.3     1  UNL1       -0.2536
      6 C          62.7085   87.2658   12.2109 C.3     1  UNL1        0.1378
      7 C          61.8405   87.2769   10.9876 C.ar    1  UNL1       -0.0027
      8 C          60.4500   87.8348   11.0598 C.ar    1  UNL1       -0.0005
      9 C          59.5819   87.8458    9.8366 C.ar    1  UNL1        0.0294
     10 C          60.1043   87.2989    8.5411 C.ar    1  UNL1        0.1401
     11 F          59.2362   87.3099    7.3179 F       1  UNL1       -0.2042
     12 C          61.4948   86.7410    8.4690 C.ar    1  UNL1        0.0294
     13 C          62.3629   86.7299    9.6923 C.ar    1  UNL1       -0.0005
     14 O          62.4746   89.8465   12.4001 O.3     1  UNL1       -0.3272
     15 C          62.8922   90.5560    9.9359 C.3     1  UNL1        0.0371
     16 C          63.2488   90.6410   11.3904 C.3     1  UNL1        0.1401
     17 C          64.3796   91.5204   11.8353 C.ar    1  UNL1        0.0045
     18 C          64.7289   91.6140   13.2910 C.ar    1  UNL1        0.0019
     19 C          65.8597   92.4934   13.7360 C.ar    1  UNL1        0.0711
     20 C          66.6411   93.2792   12.7251 C.ar    1  UNL1        0.0077
     21 C          66.2918   93.1856   11.2694 C.ar    1  UNL1        0.0711
     22 C          65.1610   92.3062   10.8245 C.ar    1  UNL1        0.0019
     23 C          66.2090   92.5870   15.1917 C.3     1  UNL1        0.4186
     24 F          66.5583   92.6807   16.6475 F       1  UNL1       -0.1659
     25 F          67.1323   93.7317   14.8965 F       1  UNL1       -0.1659
     26 F          65.2856   91.4424   15.4869 F       1  UNL1       -0.1659
     27 C          67.0733   93.9715   10.2585 C.3     1  UNL1        0.4186
     28 F          67.8547   94.7574    9.2477 F       1  UNL1       -0.1659
     29 F          67.3726   92.7080    9.5076 F       1  UNL1       -0.1659
     30 F          66.7740   95.2350   11.0095 F       1  UNL1       -0.1659
     31 C          62.9425   84.6853   12.0217 C.3     1  UNL1        0.1982
     32 C          62.6802   83.4389   12.8140 C.2     1  UNL1        0.3874
     33 N          62.4244   83.3701   14.2904 N.2     1  UNL1        0.0769
     34 N          62.2139   81.9310   14.6579 N.am    1  UNL1        0.0819
     35 C          62.3395   81.1105   13.4085 C.2     1  UNL1        0.4954
     36 O          62.2013   79.6199   13.3150 O.2     1  UNL1       -0.2139
     37 N          62.6278   82.0423   12.2689 N.am    1  UNL1        0.0540
@<TRIPOS>BOND
     1    16    15    1
     2    16    14    1
     3     1    14    1
     4     1     2    1
     5     2     3    1
     6     3     4    1
     7     4     5    1
     8     5    31    1
     9    31    32    1
    10    32    33    1
    11    33    34    2
    12    34    35    1
    13    35    36    2
    14    35    37    1
    15     5     6    1
    16     6     7    1
    17     7     8   ar
    18     8     9   ar
    19     9    10   ar
    20    10    11    1
    21    10    12   ar
    22    12    13   ar
    23    16    17    1
    24    17    18   ar
    25    18    19   ar
    26    19    23    1
    27    23    24    1
    28    23    25    1
    29    23    26    1
    30    19    20   ar
    31    20    21   ar
    32    21    27    1
    33    27    28    1
    34    27    29    1
    35    27    30    1
    36    21    22   ar
    37     6     1    1
    38    13     7   ar
    39    22    17   ar
    40    37    32    2
@<TRIPOS>MOLECULE
*****
 37 40 0 0 0
SMALL
GASTEIGER

@<TRIPOS>ATOM
      1 C          64.2203   89.7180   13.9026 C.3     1  UNL1        0.2549
      2 O          65.3394   90.0556   14.8427 O.3     1  UNL1       -0.3278
      3 C          66.2119   91.2455   14.5733 C.3     1  UNL1        0.1621
      4 C          65.9654   92.0979   13.3639 C.3     1  UNL1        0.1054
      5 N          64.8464   91.7604   12.4239 N.3     1  UNL1       -0.2536
      6 C          63.9738   90.5704   12.6932 C.3     1  UNL1        0.1378
      7 C          62.8547   90.2328   11.7531 C.ar    1  UNL1       -0.0027
      8 C          61.4428   90.1785   12.2567 C.ar    1  UNL1       -0.0005
      9 C          60.3238   89.8409   11.3167 C.ar    1  UNL1        0.0294
     10 C          60.6165   89.5576    9.8731 C.ar    1  UNL1        0.1401
     11 F          59.4975   89.2200    8.9331 F       1  UNL1       -0.2042
     12 C          62.0284   89.6119    9.3695 C.ar    1  UNL1        0.0294
     13 C          63.1476   89.9495   10.3096 C.ar    1  UNL1       -0.0005
     14 O          63.3477   88.5280   14.1719 O.3     1  UNL1       -0.3272
     15 C          64.9851   86.7727   15.1660 C.3     1  UNL1        0.0371
     16 C          63.9365   87.1484   14.1613 C.3     1  UNL1        0.1401
     17 C          63.4768   86.1446   13.1459 C.ar    1  UNL1        0.0045
     18 C          62.8514   86.6074   11.8635 C.ar    1  UNL1        0.0019
     19 C          62.3916   85.6037   10.8481 C.ar    1  UNL1        0.0711
     20 C          62.5573   84.1370   11.1152 C.ar    1  UNL1        0.0077
     21 C          63.1827   83.6741   12.3976 C.ar    1  UNL1        0.0711
     22 C          63.6424   84.6779   13.4130 C.ar    1  UNL1        0.0019
     23 C          61.7663   86.0665    9.5657 C.3     1  UNL1        0.4186
     24 F          61.1409   86.5294    8.2833 F       1  UNL1       -0.1659
     25 F          60.4950   86.3786   10.2982 F       1  UNL1       -0.1659
     26 F          63.0375   85.7545    8.8332 F       1  UNL1       -0.1659
     27 C          63.3483   82.2073   12.6647 C.3     1  UNL1        0.4186
     28 F          63.5139   80.7407   12.9318 F       1  UNL1       -0.1659
     29 F          62.4173   81.8957   11.5306 F       1  UNL1       -0.1659
     30 F          64.2792   82.5190   13.7988 F       1  UNL1       -0.1659
     31 C          64.5999   92.6128   11.2145 C.3     1  UNL1        0.1982
     32 C          65.6950   93.4848   10.6757 C.2     1  UNL1        0.3874
     33 N          67.0138   93.0134   10.1385 N.2     1  UNL1        0.0769
     34 N          67.7975   94.2187    9.7103 N.am    1  UNL1        0.0819
     35 C          66.9629   95.4350    9.9829 C.2     1  UNL1        0.4954
     36 O          67.3583   96.8554    9.7072 O.2     1  UNL1       -0.2139
     37 N          65.6636   94.9815   10.5795 N.am    1  UNL1        0.0540
@<TRIPOS>BOND
     1    16    15    1
     2    16    14    1
     3     1    14    1
     4     1     2    1
     5     2     3    1
     6     3     4    1
     7     4     5    1
     8     5    31    1
     9    31    32    1
    10    32    33    1
    11    33    34    2
    12    34    35    1
    13    35    36    2
    14    35    37    1
    15     5     6    1
    16     6     7    1
    17     7     8   ar
    18     8     9   ar
    19     9    10   ar
    20    10    11    1
    21    10    12   ar
    22    12    13   ar
    23    16    17    1
    24    17    18   ar
    25    18    19   ar
    26    19    23    1
    27    23    24    1
    28    23    25    1
    29    23    26    1
    30    19    20   ar
    31    20    21   ar
    32    21    27    1
    33    27    28    1
    34    27    29    1
    35    27    30    1
    36    21    22   ar
    37     6     1    1
    38    13     7   ar
    39    22    17   ar
    40    37    32    2
@<TRIPOS>MOLECULE
*****
 37 40 0 0 0
SMALL
GASTEIGER

@<TRIPOS>ATOM
      1 C          64.2224   89.7305   13.9140 C.3     1  UNL1        0.2549
      2 O          65.3390   90.0710   14.8560 O.3     1  UNL1       -0.3278
      3 C          66.2126   91.2598   14.5849 C.3     1  UNL1        0.1621
      4 C          65.9696   92.1081   13.3719 C.3     1  UNL1        0.1054
      5 N          64.8531   91.7676   12.4299 N.3     1  UNL1       -0.2536
      6 C          63.9795   90.5788   12.7010 C.3     1  UNL1        0.1378
      7 C          62.8629   90.2382   11.7590 C.ar    1  UNL1       -0.0027
      8 C          61.4492   90.1897   12.2580 C.ar    1  UNL1       -0.0005
      9 C          60.3326   89.8491   11.3161 C.ar    1  UNL1        0.0294
     10 C          60.6297   89.5570    9.8751 C.ar    1  UNL1        0.1401
     11 F          59.5132   89.2165    8.9332 F       1  UNL1       -0.2042
     12 C          62.0434   89.6056    9.3760 C.ar    1  UNL1        0.0294
     13 C          63.1601   89.9462   10.3180 C.ar    1  UNL1       -0.0005
     14 O          63.3488   88.5416   14.1850 O.3     1  UNL1       -0.3272
     15 C          64.9878   86.7874   15.1781 C.3     1  UNL1        0.0371
     16 C          63.9363   87.1615   14.1759 C.3     1  UNL1        0.1401
     17 C          63.4723   86.1555   13.1646 C.ar    1  UNL1        0.0045
     18 C          63.6348   84.6893   13.4362 C.ar    1  UNL1        0.0019
     19 C          63.1708   83.6833   12.4250 C.ar    1  UNL1        0.0711
     20 C          62.5444   84.1435   11.1421 C.ar    1  UNL1        0.0077
     21 C          62.3819   85.6097   10.8705 C.ar    1  UNL1        0.0711
     22 C          62.8459   86.6157   11.8817 C.ar    1  UNL1        0.0019
     23 C          63.3333   82.2170   12.6966 C.3     1  UNL1        0.4186
     24 F          63.4957   80.7508   12.9682 F       1  UNL1       -0.1659
     25 F          62.4219   81.9031   11.5473 F       1  UNL1       -0.1659
     26 F          64.2447   82.5309   13.8459 F       1  UNL1       -0.1659
     27 C          61.7555   86.0699    9.5876 C.3     1  UNL1        0.4186
     28 F          61.1291   86.5301    8.3047 F       1  UNL1       -0.1659
     29 F          60.4821   86.3757   10.3190 F       1  UNL1       -0.1659
     30 F          63.0288   85.7641    8.8562 F       1  UNL1       -0.1659
     31 C          64.6102   92.6159   11.2169 C.3     1  UNL1        0.1982
     32 C          65.7059   93.4883   10.6801 C.2     1  UNL1        0.3874
     33 N          67.0392   93.0201   10.1771 N.2     1  UNL1        0.0769
     34 N          67.8181   94.2246    9.7382 N.am    1  UNL1        0.0819
     35 C          66.9661   95.4373    9.9699 C.2     1  UNL1        0.4954
     36 O          67.3518   96.8558    9.6719 O.2     1  UNL1       -0.2139
     37 N          65.6607   94.9822   10.5521 N.am    1  UNL1        0.0540
@<TRIPOS>BOND
     1    16    15    1
     2    16    14    1
     3     1    14    1
     4     1     2    1
     5     2     3    1
     6     3     4    1
     7     4     5    1
     8     5    31    1
     9    31    32    1
    10    32    33    1
    11    33    34    2
    12    34    35    1
    13    35    36    2
    14    35    37    1
    15     5     6    1
    16     6     7    1
    17     7     8   ar
    18     8     9   ar
    19     9    10   ar
    20    10    11    1
    21    10    12   ar
    22    12    13   ar
    23    16    17    1
    24    17    18   ar
    25    18    19   ar
    26    19    23    1
    27    23    24    1
    28    23    25    1
    29    23    26    1
    30    19    20   ar
    31    20    21   ar
    32    21    27    1
    33    27    28    1
    34    27    29    1
    35    27    30    1
    36    21    22   ar
    37     6     1    1
    38    13     7   ar
    39    22    17   ar
    40    37    32    2
@<TRIPOS>MOLECULE
*****
 37 40 0 0 0
SMALL
GASTEIGER

@<TRIPOS>ATOM
      1 C          63.4463   87.9092   13.7242 C.3     1  UNL1        0.2549
      2 O          64.2340   87.3195   14.8562 O.3     1  UNL1       -0.3278
      3 C          64.5563   85.8546   14.8625 C.3     1  UNL1        0.1621
      4 C          64.0908   84.9794   13.7368 C.3     1  UNL1        0.1054
      5 N          63.3031   85.5691   12.6047 N.3     1  UNL1       -0.2536
      6 C          62.9808   87.0340   12.5984 C.3     1  UNL1        0.1378
      7 C          62.1930   87.6238   11.4663 C.ar    1  UNL1       -0.0027
      8 C          60.9448   86.9439   10.9869 C.ar    1  UNL1       -0.0005
      9 C          60.1570   87.5337    9.8549 C.ar    1  UNL1        0.0294
     10 C          60.6174   88.8034    9.2022 C.ar    1  UNL1        0.1401
     11 F          59.8296   89.3931    8.0702 F       1  UNL1       -0.2042
     12 C          61.8655   89.4833    9.6816 C.ar    1  UNL1        0.0294
     13 C          62.6533   88.8935   10.8137 C.ar    1  UNL1       -0.0005
     14 O          63.1239   89.3742   13.7179 O.3     1  UNL1       -0.3272
     15 C          63.4087   90.3144   16.1231 C.3     1  UNL1        0.0371
     16 C          63.8125   90.2978   14.6786 C.3     1  UNL1        0.1401
     17 C          64.9049   91.2048   14.1947 C.ar    1  UNL1        0.0045
     18 C          66.0415   91.5624   15.1059 C.ar    1  UNL1        0.0019
     19 C          67.1339   92.4693   14.6221 C.ar    1  UNL1        0.0711
     20 C          67.0897   93.0186   13.2270 C.ar    1  UNL1        0.0077
     21 C          65.9531   92.6610   12.3158 C.ar    1  UNL1        0.0711
     22 C          64.8608   91.7541   12.7996 C.ar    1  UNL1        0.0019
     23 C          68.2704   92.8269   15.5333 C.3     1  UNL1        0.4186
     24 F          69.4070   93.1845   16.4446 F       1  UNL1       -0.1659
     25 F          67.2916   93.2281   16.5968 F       1  UNL1       -0.1659
     26 F          69.2493   92.4257   14.4699 F       1  UNL1       -0.1659
     27 C          65.9090   93.2104   10.9207 C.3     1  UNL1        0.4186
     28 F          65.8649   93.7598    9.5256 F       1  UNL1       -0.1659
     29 F          65.0795   92.0389   10.4855 F       1  UNL1       -0.1659
     30 F          66.7385   94.3820   11.3558 F       1  UNL1       -0.1659
     31 C          62.8376   84.6939   11.4789 C.3     1  UNL1        0.1982
     32 C          62.8756   83.2015   11.6241 C.2     1  UNL1        0.3874
     33 N          63.4437   82.2330   10.6294 N.2     1  UNL1        0.0769
     34 N          63.2714   80.8483   11.1801 N.am    1  UNL1        0.0819
     35 C          62.5968   80.9611   12.5152 C.2     1  UNL1        0.4954
     36 O          62.2310   79.8200   13.4173 O.2     1  UNL1       -0.2139
     37 N          62.3522   82.4154   12.7896 N.am    1  UNL1        0.0540
@<TRIPOS>BOND
     1    16    15    1
     2    16    14    1
     3     1    14    1
     4     1     2    1
     5     2     3    1
     6     3     4    1
     7     4     5    1
     8     5    31    1
     9    31    32    1
    10    32    33    1
    11    33    34    2
    12    34    35    1
    13    35    36    2
    14    35    37    1
    15     5     6    1
    16     6     7    1
    17     7     8   ar
    18     8     9   ar
    19     9    10   ar
    20    10    11    1
    21    10    12   ar
    22    12    13   ar
    23    16    17    1
    24    17    18   ar
    25    18    19   ar
    26    19    23    1
    27    23    24    1
    28    23    25    1
    29    23    26    1
    30    19    20   ar
    31    20    21   ar
    32    21    27    1
    33    27    28    1
    34    27    29    1
    35    27    30    1
    36    21    22   ar
    37     6     1    1
    38    13     7   ar
    39    22    17   ar
    40    37    32    2
@<TRIPOS>MOLECULE
*****
 37 40 0 0 0
SMALL
GASTEIGER

@<TRIPOS>ATOM
      1 C          63.5024   87.9272   13.6871 C.3     1  UNL1        0.2549
      2 O          64.3007   87.3395   14.8128 O.3     1  UNL1       -0.3278
      3 C          64.6095   85.8718   14.8268 C.3     1  UNL1        0.1621
      4 C          64.1201   84.9917   13.7151 C.3     1  UNL1        0.1054
      5 N          63.3218   85.5794   12.5894 N.3     1  UNL1       -0.2536
      6 C          63.0130   87.0472   12.5754 C.3     1  UNL1        0.1378
      7 C          62.2146   87.6350   11.4496 C.ar    1  UNL1       -0.0027
      8 C          60.9684   86.9480   10.9753 C.ar    1  UNL1       -0.0005
      9 C          60.1701   87.5357    9.8496 C.ar    1  UNL1        0.0294
     10 C          60.6180   88.8105    9.1981 C.ar    1  UNL1        0.1401
     11 F          59.8198   89.3983    8.0724 F       1  UNL1       -0.2042
     12 C          61.8643   89.4975    9.6724 C.ar    1  UNL1        0.0294
     13 C          62.6626   88.9097   10.7982 C.ar    1  UNL1       -0.0005
     14 O          63.1935   89.3951   13.6731 O.3     1  UNL1       -0.3272
     15 C          63.4954   90.2988   16.0901 C.3     1  UNL1        0.0371
     16 C          63.8784   90.3149   14.6400 C.3     1  UNL1        0.1401
     17 C          64.9464   91.2508   14.1567 C.ar    1  UNL1        0.0045
     18 C          64.8770   91.8152   12.7686 C.ar    1  UNL1        0.0019
     19 C          65.9449   92.7511   12.2853 C.ar    1  UNL1        0.0711
     20 C          67.0822   93.1226   13.1900 C.ar    1  UNL1        0.0077
     21 C          67.1516   92.5582   14.5780 C.ar    1  UNL1        0.0711
     22 C          66.0837   91.6223   15.0614 C.ar    1  UNL1        0.0019
     23 C          65.8755   93.3155   10.8972 C.3     1  UNL1        0.4186
     24 F          65.8062   93.8798    9.5092 F       1  UNL1       -0.1659
     25 F          66.8098   94.4181   11.2989 F       1  UNL1       -0.1659
     26 F          64.9413   92.2128   10.4956 F       1  UNL1       -0.1659
     27 C          68.2889   92.9298   15.4828 C.3     1  UNL1        0.4186
     28 F          69.4262   93.3013   16.3875 F       1  UNL1       -0.1659
     29 F          69.2651   92.4134   14.4677 F       1  UNL1       -0.1659
     30 F          67.3127   93.4462   16.4978 F       1  UNL1       -0.1659
     31 C          62.8324   84.6994   11.4776 C.3     1  UNL1        0.1982
     32 C          62.8746   83.2076   11.6280 C.2     1  UNL1        0.3874
     33 N          63.4685   82.2391   10.6485 N.2     1  UNL1        0.0769
     34 N          63.2913   80.8552   11.1995 N.am    1  UNL1        0.0819
     35 C          62.5878   80.9684   12.5195 C.2     1  UNL1        0.4954
     36 O          62.2085   79.8281   13.4170 O.2     1  UNL1       -0.2139
     37 N          62.3303   82.4222   12.7843 N.am    1  UNL1        0.0540
@<TRIPOS>BOND
     1    16    15    1
     2    16    14    1
     3     1    14    1
     4     1     2    1
     5     2     3    1
     6     3     4    1
     7     4     5    1
     8     5    31    1
     9    31    32    1
    10    32    33    1
    11    33    34    2
    12    34    35    1
    13    35    36    2
    14    35    37    1
    15     5     6    1
    16     6     7    1
    17     7     8   ar
    18     8     9   ar
    19     9    10   ar
    20    10    11    1
    21    10    12   ar
    22    12    13   ar
    23    16    17    1
    24    17    18   ar
    25    18    19   ar
    26    19    23    1
    27    23    24    1
    28    23    25    1
    29    23    26    1
    30    19    20   ar
    31    20    21   ar
    32    21    27    1
    33    27    28    1
    34    27    29    1
    35    27    30    1
    36    21    22   ar
    37     6     1    1
    38    13     7   ar
    39    22    17   ar
    40    37    32    2
@<TRIPOS>MOLECULE
*****
 37 40 0 0 0
SMALL
GASTEIGER

@<TRIPOS>ATOM
      1 C          62.9710   89.4250   12.1609 C.3     1  UNL1        0.2549
      2 O          63.1180   90.3180   10.9647 O.3     1  UNL1       -0.3278
      3 C          63.9982   91.5303   11.0376 C.3     1  UNL1        0.1621
      4 C          64.7314   91.8497   12.3066 C.3     1  UNL1        0.1054
      5 N          64.5843   90.9567   13.5028 N.3     1  UNL1       -0.2536
      6 C          63.7042   89.7443   13.4299 C.3     1  UNL1        0.1378
      7 C          63.5571   88.8512   14.6261 C.ar    1  UNL1       -0.0027
      8 C          62.6873   89.2717   15.7736 C.ar    1  UNL1       -0.0005
      9 C          62.5402   88.3787   16.9698 C.ar    1  UNL1        0.0294
     10 C          63.2629   87.0652   17.0185 C.ar    1  UNL1        0.1401
     11 F          63.1158   86.1721   18.2147 F       1  UNL1       -0.2042
     12 C          64.1327   86.6447   15.8711 C.ar    1  UNL1        0.0294
     13 C          64.2798   87.5378   14.6748 C.ar    1  UNL1       -0.0005
     14 O          62.0908   88.2125   12.0880 O.3     1  UNL1       -0.3272
     15 C          62.5926   87.3148    9.7022 C.3     1  UNL1        0.0371
     16 C          62.4519   87.0773   11.1765 C.3     1  UNL1        0.1401
     17 C          62.6723   85.7044   11.7394 C.ar    1  UNL1        0.0045
     18 C          63.0254   84.5675   10.8269 C.ar    1  UNL1        0.0019
     19 C          63.2458   83.1947   11.3897 C.ar    1  UNL1        0.0711
     20 C          63.1130   82.9588   12.8650 C.ar    1  UNL1        0.0077
     21 C          62.7599   84.0957   13.7776 C.ar    1  UNL1        0.0711
     22 C          62.5395   85.4685   13.2148 C.ar    1  UNL1        0.0019
     23 C          63.5989   82.0578   10.4772 C.3     1  UNL1        0.4186
     24 F          63.9521   80.9208    9.5647 F       1  UNL1       -0.1659
     25 F          62.7123   81.1450   11.2713 F       1  UNL1       -0.1659
     26 F          64.4856   82.9706    9.6830 F       1  UNL1       -0.1659
     27 C          62.6271   83.8598   15.2530 C.3     1  UNL1        0.4186
     28 F          62.4944   83.6238   16.7283 F       1  UNL1       -0.1659
     29 F          61.3462   84.6402   15.2626 F       1  UNL1       -0.1659
     30 F          63.9080   83.0794   15.2434 F       1  UNL1       -0.1659
     31 C          65.3175   91.2761   14.7719 C.3     1  UNL1        0.1982
     32 C          66.6999   91.8554   14.7140 C.2     1  UNL1        0.3874
     33 N          67.7063   91.6280   13.6252 N.2     1  UNL1        0.0769
     34 N          68.9470   92.3959   13.9730 N.am    1  UNL1        0.0819
     35 C          68.7074   93.0980   15.2768 C.2     1  UNL1        0.4954
     36 O          69.6849   93.9793   15.9962 O.2     1  UNL1       -0.2139
     37 N          67.3186   92.7640   15.7347 N.am    1  UNL1        0.0540
@<TRIPOS>BOND
     1    16    15    1
     2    16    14    1
     3     1    14    1
     4     1     2    1
     5     2     3    1
     6     3     4    1
     7     4     5    1
     8     5    31    1
     9    31    32    1
    10    32    33    1
    11    33    34    2
    12    34    35    1
    13    35    36    2
    14    35    37    1
    15     5     6    1
    16     6     7    1
    17     7     8   ar
    18     8     9   ar
    19     9    10   ar
    20    10    11    1
    21    10    12   ar
    22    12    13   ar
    23    16    17    1
    24    17    18   ar
    25    18    19   ar
    26    19    23    1
    27    23    24    1
    28    23    25    1
    29    23    26    1
    30    19    20   ar
    31    20    21   ar
    32    21    27    1
    33    27    28    1
    34    27    29    1
    35    27    30    1
    36    21    22   ar
    37     6     1    1
    38    13     7   ar
    39    22    17   ar
    40    37    32    2
