@<TRIPOS>MOLECULE
*****
 39 44 0 0 0
SMALL
GASTEIGER

@<TRIPOS>ATOM
      1 N          61.9766   87.5233   11.2270 N.3     1  UNL1       -0.2641
      2 C          61.0659   87.2517   10.0665 C.3     1  UNL1        0.0981
      3 C          59.7007   87.8720   10.0232 C.3     1  UNL1        0.0224
      4 C          58.7900   87.6003    8.8627 C.3     1  UNL1        0.0065
      5 C          59.2443   86.7085    7.7455 C.3     1  UNL1        0.0277
      6 C          60.6094   86.0882    7.7888 C.ar    1  UNL1       -0.0073
      7 C          61.0637   85.1964    6.6716 C.ar    1  UNL1       -0.0015
      8 C          62.4288   84.5761    6.7149 C.ar    1  UNL1        0.0203
      9 C          63.3395   84.8477    7.8754 C.ar    1  UNL1        0.0985
     10 N          62.8852   85.7396    8.9926 N.ar    1  UNL1       -0.2471
     11 C          61.5202   86.3598    8.9493 C.ar    1  UNL1        0.0695
     12 C          63.1106   86.5879   11.5255 C.3     1  UNL1        0.0888
     13 C          62.2167   80.1249   13.6890 C.ar    1  UNL1       -0.0003
     14 C          62.6281   80.1073   12.2466 C.ar    1  UNL1       -0.0003
     15 C          62.8891   81.3965   11.5254 C.ar    1  UNL1       -0.0045
     16 C          62.7388   82.7031   12.2466 C.ar    1  UNL1       -0.0234
     17 C          62.3275   82.7206   13.6890 C.ar    1  UNL1       -0.0103
     18 C          62.0664   81.4316   14.4102 C.ar    1  UNL1       -0.0032
     19 C          62.1771   84.0273   14.4102 C.3     1  UNL1        0.0953
     20 N          62.4382   85.3164   13.6890 N.3     1  UNL1       -0.2934
     21 C          62.8496   85.2988   12.2466 C.3     1  UNL1        0.0748
     22 C          62.9999   83.9922   11.5254 C.3     1  UNL1        0.0432
     23 H          63.1793   85.7952   14.2008 H       1  UNL1        0.1236
     24 C          61.7533   88.7304   12.0891 C.3     1  UNL1        0.0994
     25 C          62.8400   89.7527   12.2441 C.ar    1  UNL1       -0.0062
     26 C          63.1616   90.6829   11.1122 C.ar    1  UNL1       -0.0032
     27 C          64.2482   91.7052   11.2672 C.ar    1  UNL1       -0.0032
     28 C          65.0133   91.7973   12.5541 C.ar    1  UNL1       -0.0064
     29 C          64.6917   90.8672   13.6861 C.ar    1  UNL1       -0.0032
     30 C          63.6050   89.8448   13.5311 C.ar    1  UNL1       -0.0032
     31 C          66.0999   92.8196   12.7091 C.3     1  UNL1        0.0956
     32 N          65.8423   94.2501   12.3385 N.3     1  UNL1       -0.2947
     33 H          66.1980   94.8215   13.1049 H       1  UNL1        0.1235
     34 C          66.4206   94.8131   11.0741 C.3     1  UNL1        0.0593
     35 C          67.0315   93.8968   10.0557 C.3     1  UNL1        0.0479
     36 C          67.6098   94.4598    8.7914 C.3     1  UNL1        0.1435
     37 O          67.5772   95.9391    8.5454 O.3     1  UNL1       -0.3537
     38 C          66.9663   96.8554    9.5638 C.3     1  UNL1        0.1435
     39 C          66.3880   96.2924   10.8281 C.3     1  UNL1        0.0479
@<TRIPOS>BOND
     1    13    14   ar
     2    14    15   ar
     3    15    16   ar
     4    16    17   ar
     5    17    18   ar
     6    17    19    1
     7    19    20    1
     8    20    21    1
     9    21    12    1
    10    12     1    1
    11     1    24    1
    12    24    25    1
    13    25    26   ar
    14    26    27   ar
    15    27    28   ar
    16    28    31    1
    17    31    32    1
    18    32    34    1
    19    34    35    1
    20    35    36    1
    21    36    37    1
    22    37    38    1
    23    38    39    1
    24    28    29   ar
    25    29    30   ar
    26     2     1    1
    27     2     3    1
    28     3     4    1
    29     4     5    1
    30     5     6    1
    31     6     7   ar
    32     7     8   ar
    33     8     9   ar
    34     9    10   ar
    35    10    11   ar
    36    21    22    1
    37    18    13   ar
    38    30    25   ar
    39    11     2    1
    40    22    16    1
    41    39    34    1
    42    11     6   ar
    43    20    23    1
    44    32    33    1
@<TRIPOS>MOLECULE
*****
 39 44 0 0 0
SMALL
GASTEIGER

@<TRIPOS>ATOM
      1 N          63.4953   91.0969   13.3733 N.3     1  UNL1       -0.2641
      2 C          64.7144   91.6119   12.6672 C.3     1  UNL1        0.0981
      3 C          64.6648   91.8954   11.1950 C.3     1  UNL1        0.0224
      4 C          65.8838   92.4104   10.4889 C.3     1  UNL1        0.0065
      5 C          67.1526   92.6419   11.2549 C.3     1  UNL1        0.0277
      6 C          67.2022   92.3585   12.7270 C.ar    1  UNL1       -0.0073
      7 C          68.4709   92.5900   13.4930 C.ar    1  UNL1       -0.0015
      8 C          68.5205   92.3065   14.9652 C.ar    1  UNL1        0.0203
      9 C          67.3015   91.7915   15.6713 C.ar    1  UNL1        0.0985
     10 N          66.0328   91.5600   14.9053 N.ar    1  UNL1       -0.2471
     11 C          65.9831   91.8434   13.4332 C.ar    1  UNL1        0.0695
     12 C          62.1967   90.9713   12.6330 C.3     1  UNL1        0.0888
     13 C          60.3037   86.3822    7.8783 C.ar    1  UNL1       -0.0003
     14 C          59.6205   87.6882    7.5996 C.ar    1  UNL1       -0.0003
     15 C          59.8625   88.8672    8.4949 C.ar    1  UNL1       -0.0045
     16 C          60.7876   88.7402    9.6687 C.ar    1  UNL1       -0.0234
     17 C          61.4708   87.4343    9.9474 C.ar    1  UNL1       -0.0103
     18 C          61.2289   86.2553    9.0522 C.ar    1  UNL1       -0.0032
     19 C          62.3960   87.3073   11.1213 C.3     1  UNL1        0.0953
     20 N          62.6380   88.4863   12.0164 N.3     1  UNL1       -0.2934
     21 C          61.9548   89.7923   11.7378 C.3     1  UNL1        0.0748
     22 C          61.0296   89.9193   10.5640 C.3     1  UNL1        0.0432
     23 H          63.6413   88.6690   11.9980 H       1  UNL1        0.1236
     24 C          63.5748   90.7075   14.8197 C.3     1  UNL1        0.0994
     25 C          63.6483   89.2594   15.2036 C.ar    1  UNL1       -0.0062
     26 C          63.0023   88.7859   16.4719 C.ar    1  UNL1       -0.0032
     27 C          63.0758   87.3378   16.8558 C.ar    1  UNL1       -0.0032
     28 C          63.7954   86.3630   15.9715 C.ar    1  UNL1       -0.0064
     29 C          64.4414   86.8364   14.7032 C.ar    1  UNL1       -0.0032
     30 C          64.3679   88.2846   14.3192 C.ar    1  UNL1       -0.0032
     31 C          63.8689   84.9149   16.3554 C.3     1  UNL1        0.0956
     32 N          64.6031   83.9432   15.4797 N.3     1  UNL1       -0.2947
     33 H          64.9273   83.1886   16.0845 H       1  UNL1        0.1235
     34 C          63.9008   83.2985   14.3216 C.3     1  UNL1        0.0593
     35 C          64.3882   83.5351   12.9229 C.3     1  UNL1        0.0479
     36 C          63.6859   82.8905   11.7648 C.3     1  UNL1        0.1435
     37 O          62.4962   82.0092   12.0054 O.3     1  UNL1       -0.3537
     38 C          62.0088   81.7726   13.4041 C.3     1  UNL1        0.1435
     39 C          62.7111   82.4172   14.5622 C.3     1  UNL1        0.0479
@<TRIPOS>BOND
     1    13    14   ar
     2    14    15   ar
     3    15    16   ar
     4    16    17   ar
     5    17    18   ar
     6    17    19    1
     7    19    20    1
     8    20    21    1
     9    21    12    1
    10    12     1    1
    11     1    24    1
    12    24    25    1
    13    25    26   ar
    14    26    27   ar
    15    27    28   ar
    16    28    31    1
    17    31    32    1
    18    32    34    1
    19    34    35    1
    20    35    36    1
    21    36    37    1
    22    37    38    1
    23    38    39    1
    24    28    29   ar
    25    29    30   ar
    26     2     1    1
    27     2     3    1
    28     3     4    1
    29     4     5    1
    30     5     6    1
    31     6     7   ar
    32     7     8   ar
    33     8     9   ar
    34     9    10   ar
    35    10    11   ar
    36    21    22    1
    37    18    13   ar
    38    30    25   ar
    39    11     2    1
    40    22    16    1
    41    39    34    1
    42    11     6   ar
    43    20    23    1
    44    32    33    1
@<TRIPOS>MOLECULE
*****
 39 44 0 0 0
SMALL
GASTEIGER

@<TRIPOS>ATOM
      1 N          63.8523   90.6616   14.3532 N.3     1  UNL1       -0.2641
      2 C          65.2444   91.1547   14.0909 C.3     1  UNL1        0.0981
      3 C          66.3048   91.0012   15.1407 C.3     1  UNL1        0.0224
      4 C          67.6969   91.4943   14.8784 C.3     1  UNL1        0.0065
      5 C          68.0287   92.1410   13.5662 C.3     1  UNL1        0.0277
      6 C          66.9684   92.2945   12.5164 C.ar    1  UNL1       -0.0073
      7 C          67.3002   92.9412   11.2043 C.ar    1  UNL1       -0.0015
      8 C          66.2398   93.0947   10.1544 C.ar    1  UNL1        0.0203
      9 C          64.8477   92.6016   10.4167 C.ar    1  UNL1        0.0985
     10 N          64.5159   91.9550   11.7289 N.ar    1  UNL1       -0.2471
     11 C          65.5762   91.8014   12.7787 C.ar    1  UNL1        0.0695
     12 C          62.7787   90.8644   13.3254 C.3     1  UNL1        0.0888
     13 C          60.5049   86.7337    8.3237 C.ar    1  UNL1       -0.0003
     14 C          59.8273   88.0667    8.2056 C.ar    1  UNL1       -0.0003
     15 C          60.1466   89.1595    9.1824 C.ar    1  UNL1       -0.0045
     16 C          61.1434   88.9192   10.2772 C.ar    1  UNL1       -0.0234
     17 C          61.8210   87.5861   10.3952 C.ar    1  UNL1       -0.0103
     18 C          61.5017   86.4934    9.4185 C.ar    1  UNL1       -0.0032
     19 C          62.8178   87.3459   11.4901 C.3     1  UNL1        0.0953
     20 N          63.1370   88.4386   12.4668 N.3     1  UNL1       -0.2934
     21 C          62.4595   89.7716   12.3487 C.3     1  UNL1        0.0748
     22 C          61.4627   90.0119   11.2539 C.3     1  UNL1        0.0432
     23 H          64.1400   88.6110   12.3983 H       1  UNL1        0.1236
     24 C          63.5338   89.9658   15.6433 C.3     1  UNL1        0.0994
     25 C          63.6335   88.4719   15.7341 C.ar    1  UNL1       -0.0062
     26 C          62.8891   87.7344   16.8075 C.ar    1  UNL1       -0.0032
     27 C          62.9887   86.2405   16.8984 C.ar    1  UNL1       -0.0032
     28 C          63.8328   85.4840   15.9159 C.ar    1  UNL1       -0.0064
     29 C          64.5773   86.2214   14.8426 C.ar    1  UNL1       -0.0032
     30 C          64.4776   87.7154   14.7517 C.ar    1  UNL1       -0.0032
     31 C          63.9325   83.9901   16.0068 C.3     1  UNL1        0.0956
     32 N          62.8034   83.1320   15.5184 N.3     1  UNL1       -0.2947
     33 H          61.9521   83.6869   15.6071 H       1  UNL1        0.1235
     34 C          62.8235   82.5906   14.1196 C.3     1  UNL1        0.0593
     35 C          62.6765   81.1166   13.8837 C.3     1  UNL1        0.0479
     36 C          62.6967   80.5752   12.4850 C.3     1  UNL1        0.1435
     37 O          62.8640   81.5079   11.3221 O.3     1  UNL1       -0.3537
     38 C          63.0110   82.9819   11.5580 C.3     1  UNL1        0.1435
     39 C          62.9908   83.5232   12.9567 C.3     1  UNL1        0.0479
@<TRIPOS>BOND
     1    13    14   ar
     2    14    15   ar
     3    15    16   ar
     4    16    17   ar
     5    17    18   ar
     6    17    19    1
     7    19    20    1
     8    20    21    1
     9    21    12    1
    10    12     1    1
    11     1    24    1
    12    24    25    1
    13    25    26   ar
    14    26    27   ar
    15    27    28   ar
    16    28    31    1
    17    31    32    1
    18    32    34    1
    19    34    35    1
    20    35    36    1
    21    36    37    1
    22    37    38    1
    23    38    39    1
    24    28    29   ar
    25    29    30   ar
    26     2     1    1
    27     2     3    1
    28     3     4    1
    29     4     5    1
    30     5     6    1
    31     6     7   ar
    32     7     8   ar
    33     8     9   ar
    34     9    10   ar
    35    10    11   ar
    36    21    22    1
    37    18    13   ar
    38    30    25   ar
    39    11     2    1
    40    22    16    1
    41    39    34    1
    42    11     6   ar
    43    20    23    1
    44    32    33    1
@<TRIPOS>MOLECULE
*****
 39 44 0 0 0
SMALL
GASTEIGER

@<TRIPOS>ATOM
      1 N          61.7317   87.2120   11.5391 N.3     1  UNL1       -0.2641
      2 C          62.3850   86.0276   10.8908 C.3     1  UNL1        0.0981
      3 C          62.6438   86.0292    9.4132 C.3     1  UNL1        0.0224
      4 C          63.2971   84.8447    8.7650 C.3     1  UNL1        0.0065
      5 C          63.6917   83.6587    9.5942 C.3     1  UNL1        0.0277
      6 C          63.4330   83.6571   11.0717 C.ar    1  UNL1       -0.0073
      7 C          63.8276   82.4711   11.9009 C.ar    1  UNL1       -0.0015
      8 C          63.5688   82.4695   13.3785 C.ar    1  UNL1        0.0203
      9 C          62.9155   83.6539   14.0267 C.ar    1  UNL1        0.0985
     10 N          62.5209   84.8399   13.1975 N.ar    1  UNL1       -0.2471
     11 C          62.7796   84.8416   11.7200 C.ar    1  UNL1        0.0695
     12 C          62.4881   88.0288   12.5444 C.3     1  UNL1        0.0888
     13 C          66.0620   93.8558   11.8205 C.ar    1  UNL1       -0.0003
     14 C          66.2902   93.3078   13.1981 C.ar    1  UNL1       -0.0003
     15 C          65.6211   92.0327   13.6183 C.ar    1  UNL1       -0.0045
     16 C          64.7237   91.3058   12.6611 C.ar    1  UNL1       -0.0234
     17 C          64.4955   91.8538   11.2836 C.ar    1  UNL1       -0.0103
     18 C          65.1646   93.1288   10.8633 C.ar    1  UNL1       -0.0032
     19 C          63.5981   91.1268   10.3263 C.3     1  UNL1        0.0953
     20 N          62.9290   89.8519   10.7466 N.3     1  UNL1       -0.2934
     21 C          63.1572   89.3038   12.1241 C.3     1  UNL1        0.0748
     22 C          64.0546   90.0307   13.0814 C.3     1  UNL1        0.0432
     23 H          63.2289   89.1315   10.0897 H       1  UNL1        0.1236
     24 C          60.3220   87.5797   11.1820 C.3     1  UNL1        0.0994
     25 C          60.0125   88.1325    9.8224 C.ar    1  UNL1       -0.0062
     26 C          59.4342   87.2406    8.7640 C.ar    1  UNL1       -0.0032
     27 C          59.1247   87.7935    7.4044 C.ar    1  UNL1       -0.0032
     28 C          59.3934   89.2381    7.1031 C.ar    1  UNL1       -0.0064
     29 C          59.9717   90.1299    8.1615 C.ar    1  UNL1       -0.0032
     30 C          60.2812   89.5771    9.5212 C.ar    1  UNL1       -0.0032
     31 C          59.0839   89.7909    5.7435 C.3     1  UNL1        0.0956
     32 N          59.1911   91.2657    5.4913 N.3     1  UNL1       -0.2947
     33 H          59.5124   91.6906    6.3612 H       1  UNL1        0.1235
     34 C          60.0872   91.7772    4.4026 C.3     1  UNL1        0.0593
     35 C          59.5709   92.7833    3.4170 C.3     1  UNL1        0.0479
     36 C          60.4671   93.2947    2.3283 C.3     1  UNL1        0.1435
     37 O          61.8794   92.8002    2.2252 O.3     1  UNL1       -0.3537
     38 C          62.3957   91.7942    3.2107 C.3     1  UNL1        0.1435
     39 C          61.4996   91.2827    4.2994 C.3     1  UNL1        0.0479
@<TRIPOS>BOND
     1    13    14   ar
     2    14    15   ar
     3    15    16   ar
     4    16    17   ar
     5    17    18   ar
     6    17    19    1
     7    19    20    1
     8    20    21    1
     9    21    12    1
    10    12     1    1
    11     1    24    1
    12    24    25    1
    13    25    26   ar
    14    26    27   ar
    15    27    28   ar
    16    28    31    1
    17    31    32    1
    18    32    34    1
    19    34    35    1
    20    35    36    1
    21    36    37    1
    22    37    38    1
    23    38    39    1
    24    28    29   ar
    25    29    30   ar
    26     2     1    1
    27     2     3    1
    28     3     4    1
    29     4     5    1
    30     5     6    1
    31     6     7   ar
    32     7     8   ar
    33     8     9   ar
    34     9    10   ar
    35    10    11   ar
    36    21    22    1
    37    18    13   ar
    38    30    25   ar
    39    11     2    1
    40    22    16    1
    41    39    34    1
    42    11     6   ar
    43    20    23    1
    44    32    33    1
@<TRIPOS>MOLECULE
*****
 39 44 0 0 0
SMALL
GASTEIGER

@<TRIPOS>ATOM
      1 N          63.8497   90.1263   13.8598 N.3     1  UNL1       -0.2641
      2 C          64.5561   91.2348   13.1372 C.3     1  UNL1        0.0981
      3 C          64.2671   91.4888   11.6873 C.3     1  UNL1        0.0224
      4 C          64.9736   92.5973   10.9648 C.3     1  UNL1        0.0065
      5 C          65.9690   93.4518   11.6920 C.3     1  UNL1        0.0277
      6 C          66.2581   93.1979   13.1418 C.ar    1  UNL1       -0.0073
      7 C          67.2535   94.0524   13.8690 C.ar    1  UNL1       -0.0015
      8 C          67.5425   93.7983   15.3189 C.ar    1  UNL1        0.0203
      9 C          66.8361   92.6898   16.0414 C.ar    1  UNL1        0.0985
     10 N          65.8406   91.8353   15.3142 N.ar    1  UNL1       -0.2471
     11 C          65.5516   92.0893   13.8644 C.ar    1  UNL1        0.0695
     12 C          62.3656   89.9631   13.7153 C.3     1  UNL1        0.0888
     13 C          60.4856   86.9620    7.8239 C.ar    1  UNL1       -0.0003
     14 C          61.5201   86.1117    8.4997 C.ar    1  UNL1       -0.0003
     15 C          62.1030   86.5419    9.8132 C.ar    1  UNL1       -0.0045
     16 C          61.6514   87.8223   10.4508 C.ar    1  UNL1       -0.0234
     17 C          60.6168   88.6726    9.7750 C.ar    1  UNL1       -0.0103
     18 C          60.0339   88.2424    8.4615 C.ar    1  UNL1       -0.0032
     19 C          60.1652   89.9531   10.4126 C.3     1  UNL1        0.0953
     20 N          60.7481   90.3832   11.7260 N.3     1  UNL1       -0.2934
     21 C          61.7827   89.5329   12.4019 C.3     1  UNL1        0.0748
     22 C          62.2343   88.2526   11.7643 C.3     1  UNL1        0.0432
     23 H          59.9692   90.4735   12.3784 H       1  UNL1        0.1236
     24 C          64.6273   89.1810   14.7268 C.3     1  UNL1        0.0994
     25 C          64.1360   87.7794   14.9368 C.ar    1  UNL1       -0.0062
     26 C          63.5348   87.3848   16.2532 C.ar    1  UNL1       -0.0032
     27 C          63.0435   85.9832   16.4633 C.ar    1  UNL1       -0.0032
     28 C          63.1534   84.9762   15.3569 C.ar    1  UNL1       -0.0064
     29 C          63.7545   85.3708   14.0406 C.ar    1  UNL1       -0.0032
     30 C          64.2459   86.7725   13.8305 C.ar    1  UNL1       -0.0032
     31 C          62.6621   83.5746   15.5670 C.3     1  UNL1        0.0956
     32 N          63.5097   82.4115   15.1442 N.3     1  UNL1       -0.2947
     33 H          63.3695   81.6773   15.8382 H       1  UNL1        0.1235
     34 C          63.3012   81.7813   13.7990 C.3     1  UNL1        0.0593
     35 C          63.7004   82.5187   12.5553 C.3     1  UNL1        0.0479
     36 C          63.4919   81.8885   11.2102 C.3     1  UNL1        0.1435
     37 O          62.8841   80.5209   11.1088 O.3     1  UNL1       -0.3537
     38 C          62.4849   79.7835   12.3525 C.3     1  UNL1        0.1435
     39 C          62.6934   80.4137   13.6976 C.3     1  UNL1        0.0479
@<TRIPOS>BOND
     1    13    14   ar
     2    14    15   ar
     3    15    16   ar
     4    16    17   ar
     5    17    18   ar
     6    17    19    1
     7    19    20    1
     8    20    21    1
     9    21    12    1
    10    12     1    1
    11     1    24    1
    12    24    25    1
    13    25    26   ar
    14    26    27   ar
    15    27    28   ar
    16    28    31    1
    17    31    32    1
    18    32    34    1
    19    34    35    1
    20    35    36    1
    21    36    37    1
    22    37    38    1
    23    38    39    1
    24    28    29   ar
    25    29    30   ar
    26     2     1    1
    27     2     3    1
    28     3     4    1
    29     4     5    1
    30     5     6    1
    31     6     7   ar
    32     7     8   ar
    33     8     9   ar
    34     9    10   ar
    35    10    11   ar
    36    21    22    1
    37    18    13   ar
    38    30    25   ar
    39    11     2    1
    40    22    16    1
    41    39    34    1
    42    11     6   ar
    43    20    23    1
    44    32    33    1
@<TRIPOS>MOLECULE
*****
 39 44 0 0 0
SMALL
GASTEIGER

@<TRIPOS>ATOM
      1 N          61.9587   87.3154   10.9623 N.3     1  UNL1       -0.2641
      2 C          61.0314   87.0406    9.8158 C.3     1  UNL1        0.0981
      3 C          59.6558   87.6388    9.8038 C.3     1  UNL1        0.0224
      4 C          58.7284   87.3640    8.6573 C.3     1  UNL1        0.0065
      5 C          59.1766   86.4910    7.5228 C.3     1  UNL1        0.0277
      6 C          60.5521   85.8929    7.5347 C.ar    1  UNL1       -0.0073
      7 C          61.0002   85.0200    6.4002 C.ar    1  UNL1       -0.0015
      8 C          62.3758   84.4218    6.4122 C.ar    1  UNL1        0.0203
      9 C          63.3032   84.6966    7.5586 C.ar    1  UNL1        0.0985
     10 N          62.8550   85.5696    8.6932 N.ar    1  UNL1       -0.2471
     11 C          61.4795   86.1677    8.6812 C.ar    1  UNL1        0.0695
     12 C          63.0819   86.3674   11.2623 C.3     1  UNL1        0.0888
     13 C          62.1815   80.0279   13.7622 C.ar    1  UNL1       -0.0003
     14 C          62.5962   79.9341   12.3237 C.ar    1  UNL1       -0.0003
     15 C          62.8592   81.1833   11.5360 C.ar    1  UNL1       -0.0045
     16 C          62.7075   82.5262   12.1868 C.ar    1  UNL1       -0.0234
     17 C          62.2929   82.6200   13.6253 C.ar    1  UNL1       -0.0103
     18 C          62.0299   81.3709   14.4130 C.ar    1  UNL1       -0.0032
     19 C          62.1412   83.9630   14.2761 C.3     1  UNL1        0.0953
     20 N          62.4042   85.2121   13.4884 N.3     1  UNL1       -0.2934
     21 C          62.8189   85.1183   12.0499 C.3     1  UNL1        0.0748
     22 C          62.9705   83.7754   11.3991 C.3     1  UNL1        0.0432
     23 H          63.1443   85.7172   13.9759 H       1  UNL1        0.1236
     24 C          61.7630   88.5382   11.8088 C.3     1  UNL1        0.0994
     25 C          62.6922   89.7068   11.6646 C.ar    1  UNL1       -0.0062
     26 C          63.5193   90.1559   12.8327 C.ar    1  UNL1       -0.0032
     27 C          64.4485   91.3245   12.6886 C.ar    1  UNL1       -0.0032
     28 C          64.5508   92.0440   11.3764 C.ar    1  UNL1       -0.0064
     29 C          63.7237   91.5950   10.2084 C.ar    1  UNL1       -0.0032
     30 C          62.7944   90.4263   10.3525 C.ar    1  UNL1       -0.0032
     31 C          65.4800   93.2127   11.2322 C.3     1  UNL1        0.0956
     32 N          65.9050   93.9870   12.4446 N.3     1  UNL1       -0.2947
     33 H          65.0519   94.2985   12.9090 H       1  UNL1        0.1235
     34 C          66.7543   93.3318   13.4932 C.3     1  UNL1        0.0593
     35 C          66.5299   93.6442   14.9430 C.3     1  UNL1        0.0479
     36 C          67.3792   92.9890   15.9915 C.3     1  UNL1        0.1435
     37 O          68.4530   92.0216   15.5902 O.3     1  UNL1       -0.3537
     38 C          68.6774   91.7093   14.1404 C.3     1  UNL1        0.1435
     39 C          67.8281   92.3644   13.0919 C.3     1  UNL1        0.0479
@<TRIPOS>BOND
     1    13    14   ar
     2    14    15   ar
     3    15    16   ar
     4    16    17   ar
     5    17    18   ar
     6    17    19    1
     7    19    20    1
     8    20    21    1
     9    21    12    1
    10    12     1    1
    11     1    24    1
    12    24    25    1
    13    25    26   ar
    14    26    27   ar
    15    27    28   ar
    16    28    31    1
    17    31    32    1
    18    32    34    1
    19    34    35    1
    20    35    36    1
    21    36    37    1
    22    37    38    1
    23    38    39    1
    24    28    29   ar
    25    29    30   ar
    26     2     1    1
    27     2     3    1
    28     3     4    1
    29     4     5    1
    30     5     6    1
    31     6     7   ar
    32     7     8   ar
    33     8     9   ar
    34     9    10   ar
    35    10    11   ar
    36    21    22    1
    37    18    13   ar
    38    30    25   ar
    39    11     2    1
    40    22    16    1
    41    39    34    1
    42    11     6   ar
    43    20    23    1
    44    32    33    1
@<TRIPOS>MOLECULE
*****
 39 44 0 0 0
SMALL
GASTEIGER

@<TRIPOS>ATOM
      1 N          63.8191   90.6187   12.4381 N.3     1  UNL1       -0.2641
      2 C          64.7658   91.5823   13.0900 C.3     1  UNL1        0.0981
      3 C          65.1883   91.3715   14.5138 C.3     1  UNL1        0.0224
      4 C          66.1350   92.3351   15.1658 C.3     1  UNL1        0.0065
      5 C          66.6593   93.5096   14.3940 C.3     1  UNL1        0.0277
      6 C          66.2369   93.7204   12.9702 C.ar    1  UNL1       -0.0073
      7 C          66.7613   94.8949   12.1984 C.ar    1  UNL1       -0.0015
      8 C          66.3388   95.1057   10.7746 C.ar    1  UNL1        0.0203
      9 C          65.3921   94.1421   10.1227 C.ar    1  UNL1        0.0985
     10 N          64.8678   92.9676   10.8945 N.ar    1  UNL1       -0.2471
     11 C          65.2902   92.7568   12.3182 C.ar    1  UNL1        0.0695
     12 C          63.7115   90.5685   10.9427 C.3     1  UNL1        0.0888
     13 C          59.1213   86.5117    7.8247 C.ar    1  UNL1       -0.0003
     14 C          60.4277   85.7825    7.9327 C.ar    1  UNL1       -0.0003
     15 C          61.6070   86.4480    8.5780 C.ar    1  UNL1       -0.0045
     16 C          61.4800   87.8428    9.1151 C.ar    1  UNL1       -0.0234
     17 C          60.1736   88.5720    9.0071 C.ar    1  UNL1       -0.0103
     18 C          58.9943   87.9065    8.3619 C.ar    1  UNL1       -0.0032
     19 C          60.0466   89.9668    9.5443 C.3     1  UNL1        0.0953
     20 N          61.2259   90.6323   10.1895 N.3     1  UNL1       -0.2934
     21 C          62.5322   89.9030   10.2975 C.3     1  UNL1        0.0748
     22 C          62.6593   88.5083    9.7604 C.3     1  UNL1        0.0432
     23 H          60.9442   90.8741   11.1395 H       1  UNL1        0.1236
     24 C          62.9799   89.7051   13.2814 C.3     1  UNL1        0.0994
     25 C          63.4561   88.3152   13.5836 C.ar    1  UNL1       -0.0062
     26 C          63.0669   87.1775   12.6869 C.ar    1  UNL1       -0.0032
     27 C          63.5431   85.7876   12.9891 C.ar    1  UNL1       -0.0032
     28 C          64.4085   85.5353   14.1880 C.ar    1  UNL1       -0.0064
     29 C          64.7977   86.6730   15.0848 C.ar    1  UNL1       -0.0032
     30 C          64.3215   88.0630   14.7826 C.ar    1  UNL1       -0.0032
     31 C          64.8847   84.1454   14.4903 C.3     1  UNL1        0.0956
     32 N          63.8910   83.0449   14.7171 N.3     1  UNL1       -0.2947
     33 H          63.0288   83.4876   15.0352 H       1  UNL1        0.1235
     34 C          63.5169   82.1281   13.5903 C.3     1  UNL1        0.0593
     35 C          63.8422   82.5068   12.1758 C.3     1  UNL1        0.0479
     36 C          63.4681   81.5900   11.0491 C.3     1  UNL1        0.1435
     37 O          62.7688   80.2946   11.3368 O.3     1  UNL1       -0.3537
     38 C          62.4434   79.9160   12.7513 C.3     1  UNL1        0.1435
     39 C          62.8175   80.8327   13.8780 C.3     1  UNL1        0.0479
@<TRIPOS>BOND
     1    13    14   ar
     2    14    15   ar
     3    15    16   ar
     4    16    17   ar
     5    17    18   ar
     6    17    19    1
     7    19    20    1
     8    20    21    1
     9    21    12    1
    10    12     1    1
    11     1    24    1
    12    24    25    1
    13    25    26   ar
    14    26    27   ar
    15    27    28   ar
    16    28    31    1
    17    31    32    1
    18    32    34    1
    19    34    35    1
    20    35    36    1
    21    36    37    1
    22    37    38    1
    23    38    39    1
    24    28    29   ar
    25    29    30   ar
    26     2     1    1
    27     2     3    1
    28     3     4    1
    29     4     5    1
    30     5     6    1
    31     6     7   ar
    32     7     8   ar
    33     8     9   ar
    34     9    10   ar
    35    10    11   ar
    36    21    22    1
    37    18    13   ar
    38    30    25   ar
    39    11     2    1
    40    22    16    1
    41    39    34    1
    42    11     6   ar
    43    20    23    1
    44    32    33    1
@<TRIPOS>MOLECULE
*****
 39 44 0 0 0
SMALL
GASTEIGER

@<TRIPOS>ATOM
      1 N          63.3837   88.7860   13.9559 N.3     1  UNL1       -0.2641
      2 C          63.2976   87.8314   15.1097 C.3     1  UNL1        0.0981
      3 C          62.9996   88.3448   16.4873 C.3     1  UNL1        0.0224
      4 C          62.9135   87.3902   17.6411 C.3     1  UNL1        0.0065
      5 C          63.1255   85.9222   17.4174 C.3     1  UNL1        0.0277
      6 C          63.4236   85.4088   16.0400 C.ar    1  UNL1       -0.0073
      7 C          63.6355   83.9408   15.8163 C.ar    1  UNL1       -0.0015
      8 C          63.9336   83.4274   14.4387 C.ar    1  UNL1        0.0203
      9 C          64.0197   84.3820   13.2849 C.ar    1  UNL1        0.0985
     10 N          63.8077   85.8500   13.5086 N.ar    1  UNL1       -0.2471
     11 C          63.5096   86.3634   14.8861 C.ar    1  UNL1        0.0695
     12 C          63.2547   90.2617   14.1922 C.3     1  UNL1        0.0888
     13 C          69.2217   93.3762   15.5866 C.ar    1  UNL1       -0.0003
     14 C          69.3608   92.5964   14.3128 C.ar    1  UNL1       -0.0003
     15 C          68.1952   91.8175   13.7791 C.ar    1  UNL1       -0.0045
     16 C          66.8905   91.8185   14.5193 C.ar    1  UNL1       -0.0234
     17 C          66.7515   92.5983   15.7931 C.ar    1  UNL1       -0.0103
     18 C          67.9170   93.3771   16.3268 C.ar    1  UNL1       -0.0032
     19 C          65.4467   92.5992   16.5333 C.3     1  UNL1        0.0953
     20 N          64.2812   91.8203   15.9996 N.3     1  UNL1       -0.2934
     21 C          64.4203   91.0406   14.7258 C.3     1  UNL1        0.0748
     22 C          65.7249   91.0396   13.9857 C.3     1  UNL1        0.0432
     23 H          63.5228   92.4870   15.8554 H       1  UNL1        0.1236
     24 C          63.5988   88.2650   12.5659 C.3     1  UNL1        0.0994
     25 C          62.5579   88.4927   11.5102 C.ar    1  UNL1       -0.0062
     26 C          61.6559   87.3695   11.0916 C.ar    1  UNL1       -0.0032
     27 C          60.6150   87.5972   10.0359 C.ar    1  UNL1       -0.0032
     28 C          60.4760   88.9480    9.3987 C.ar    1  UNL1       -0.0064
     29 C          61.3779   90.0711    9.8172 C.ar    1  UNL1       -0.0032
     30 C          62.4189   89.8434   10.8729 C.ar    1  UNL1       -0.0032
     31 C          59.4350   89.1757    8.3430 C.3     1  UNL1        0.0956
     32 N          59.8087   89.0986    6.8923 N.3     1  UNL1       -0.2947
     33 H          59.4085   88.2328    6.5307 H       1  UNL1        0.1235
     34 C          59.3957   90.1922    5.9523 C.3     1  UNL1        0.0593
     35 C          60.4362   90.9649    5.1972 C.3     1  UNL1        0.0479
     36 C          60.0232   92.0584    4.2573 C.3     1  UNL1        0.1435
     37 O          58.5696   92.3793    4.0724 O.3     1  UNL1       -0.3537
     38 C          57.5290   91.6066    4.8275 C.3     1  UNL1        0.1435
     39 C          57.9421   90.5131    5.7674 C.3     1  UNL1        0.0479
@<TRIPOS>BOND
     1    13    14   ar
     2    14    15   ar
     3    15    16   ar
     4    16    17   ar
     5    17    18   ar
     6    17    19    1
     7    19    20    1
     8    20    21    1
     9    21    12    1
    10    12     1    1
    11     1    24    1
    12    24    25    1
    13    25    26   ar
    14    26    27   ar
    15    27    28   ar
    16    28    31    1
    17    31    32    1
    18    32    34    1
    19    34    35    1
    20    35    36    1
    21    36    37    1
    22    37    38    1
    23    38    39    1
    24    28    29   ar
    25    29    30   ar
    26     2     1    1
    27     2     3    1
    28     3     4    1
    29     4     5    1
    30     5     6    1
    31     6     7   ar
    32     7     8   ar
    33     8     9   ar
    34     9    10   ar
    35    10    11   ar
    36    21    22    1
    37    18    13   ar
    38    30    25   ar
    39    11     2    1
    40    22    16    1
    41    39    34    1
    42    11     6   ar
    43    20    23    1
    44    32    33    1
@<TRIPOS>MOLECULE
*****
 39 44 0 0 0
SMALL
GASTEIGER

@<TRIPOS>ATOM
      1 N          62.1156   87.2609   11.1999 N.3     1  UNL1       -0.2641
      2 C          61.1453   87.0443   10.0767 C.3     1  UNL1        0.0981
      3 C          59.7713   87.6421   10.1468 C.3     1  UNL1        0.0224
      4 C          58.8010   87.4255    9.0236 C.3     1  UNL1        0.0065
      5 C          59.2045   86.6110    7.8304 C.3     1  UNL1        0.0277
      6 C          60.5784   86.0132    7.7603 C.ar    1  UNL1       -0.0073
      7 C          60.9820   85.1987    6.5671 C.ar    1  UNL1       -0.0015
      8 C          62.3559   84.6008    6.4971 C.ar    1  UNL1        0.0203
      9 C          63.3263   84.8175    7.6202 C.ar    1  UNL1        0.0985
     10 N          62.9227   85.6319    8.8134 N.ar    1  UNL1       -0.2471
     11 C          61.5488   86.2298    8.8835 C.ar    1  UNL1        0.0695
     12 C          62.0972   86.3516   12.3928 C.3     1  UNL1        0.0888
     13 C          62.7361   79.5163   12.7392 C.ar    1  UNL1       -0.0003
     14 C          61.9523   79.9968   13.9244 C.ar    1  UNL1       -0.0003
     15 C          61.6677   81.4601   14.0921 C.ar    1  UNL1       -0.0045
     16 C          62.1670   82.4426   13.0747 C.ar    1  UNL1       -0.0234
     17 C          62.9508   81.9621   11.8895 C.ar    1  UNL1       -0.0103
     18 C          63.2354   80.4989   11.7217 C.ar    1  UNL1       -0.0032
     19 C          63.4501   82.9448   10.8721 C.3     1  UNL1        0.0953
     20 N          63.1656   84.4079   11.0398 N.3     1  UNL1       -0.2934
     21 C          62.3818   84.8885   12.2250 C.3     1  UNL1        0.0748
     22 C          61.8825   83.9059   13.2424 C.3     1  UNL1        0.0432
     23 H          62.6549   84.7058   10.2086 H       1  UNL1        0.1236
     24 C          63.1043   88.3867   11.1302 C.3     1  UNL1        0.0994
     25 C          63.4307   89.1757   12.3634 C.ar    1  UNL1       -0.0062
     26 C          63.2692   90.6670   12.3644 C.ar    1  UNL1       -0.0032
     27 C          63.5956   91.4560   13.5976 C.ar    1  UNL1       -0.0032
     28 C          64.0835   90.7537   14.8300 C.ar    1  UNL1       -0.0064
     29 C          64.2449   89.2624   14.8291 C.ar    1  UNL1       -0.0032
     30 C          63.9186   88.4734   13.5958 C.ar    1  UNL1       -0.0032
     31 C          64.4098   91.5427   16.0633 C.3     1  UNL1        0.0956
     32 N          65.2551   92.7777   15.9617 N.3     1  UNL1       -0.2947
     33 H          65.3484   93.1491   16.9071 H       1  UNL1        0.1235
     34 C          66.6396   92.6941   15.3906 C.3     1  UNL1        0.0593
     35 C          66.8524   92.1222   14.0204 C.3     1  UNL1        0.0479
     36 C          68.2369   92.0386   13.4493 C.3     1  UNL1        0.1435
     37 O          69.4086   92.5269   14.2486 O.3     1  UNL1       -0.3537
     38 C          69.1958   93.0987   15.6188 C.3     1  UNL1        0.1435
     39 C          67.8113   93.1823   16.1898 C.3     1  UNL1        0.0479
@<TRIPOS>BOND
     1    13    14   ar
     2    14    15   ar
     3    15    16   ar
     4    16    17   ar
     5    17    18   ar
     6    17    19    1
     7    19    20    1
     8    20    21    1
     9    21    12    1
    10    12     1    1
    11     1    24    1
    12    24    25    1
    13    25    26   ar
    14    26    27   ar
    15    27    28   ar
    16    28    31    1
    17    31    32    1
    18    32    34    1
    19    34    35    1
    20    35    36    1
    21    36    37    1
    22    37    38    1
    23    38    39    1
    24    28    29   ar
    25    29    30   ar
    26     2     1    1
    27     2     3    1
    28     3     4    1
    29     4     5    1
    30     5     6    1
    31     6     7   ar
    32     7     8   ar
    33     8     9   ar
    34     9    10   ar
    35    10    11   ar
    36    21    22    1
    37    18    13   ar
    38    30    25   ar
    39    11     2    1
    40    22    16    1
    41    39    34    1
    42    11     6   ar
    43    20    23    1
    44    32    33    1
