@<TRIPOS>MOLECULE
*****
 24 26 0 0 0
SMALL
GASTEIGER

@<TRIPOS>ATOM
      1 C          63.8452   83.9314   13.8154 C.2     1  UNL1        0.1045
      2 C          63.9601   85.1090   14.7373 C.2     1  UNL1        0.1076
      3 C          62.8408   84.5634   15.5737 C.2     1  UNL1        0.2500
      4 O          62.1307   85.0104   16.8171 O.2     1  UNL1       -0.2817
      5 C          62.7259   83.3858   14.6518 C.2     1  UNL1        0.2497
      6 O          61.8532   82.1672   14.5913 O.2     1  UNL1       -0.2817
      7 N          64.5554   83.4844   12.5720 N.pl3   1  UNL1       -0.3270
      8 H          65.5348   83.3847   12.5734 H       1  UNL1        0.1472
      9 C          63.6608   81.7793   10.8278 C.3     1  UNL1        0.0261
     10 C          63.7733   83.1895   11.3265 C.3     1  UNL1        0.0920
     11 C          63.1035   84.3048   10.5797 C.ar    1  UNL1       -0.0046
     12 C          62.1418   85.2111   11.2892 C.ar    1  UNL1       -0.0027
     13 C          61.4721   86.3263   10.5424 C.ar    1  UNL1       -0.0003
     14 C          61.7642   86.5352    9.0860 C.ar    1  UNL1       -0.0000
     15 C          62.7260   85.6289    8.3765 C.ar    1  UNL1       -0.0003
     16 C          63.3956   84.5136    9.1233 C.ar    1  UNL1       -0.0027
     17 N          64.8328   86.3275   14.7977 N.pl3   1  UNL1       -0.3088
     18 H          65.8102   86.2372   14.7219 H       1  UNL1        0.1523
     19 C          64.2162   87.6836   14.9738 C.ar    1  UNL1        0.0515
     20 C          64.1681   88.6411   13.8202 C.ar    1  UNL1        0.0353
     21 C          63.5516   89.9971   13.9963 C.ar    1  UNL1        0.1002
     22 N          62.9832   90.3957   15.3260 N.ar    1  UNL1       -0.2422
     23 C          63.0313   89.4382   16.4796 C.ar    1  UNL1        0.1002
     24 C          63.6478   88.0821   16.3035 C.ar    1  UNL1        0.0353
@<TRIPOS>BOND
     1    10     9    1
     2    10     7    1
     3     7     1    1
     4     1     2    2
     5     2    17    1
     6    17    19    1
     7    19    20   ar
     8    20    21   ar
     9    21    22   ar
    10    22    23   ar
    11    23    24   ar
    12     2     3    1
    13     3     4    2
    14     3     5    1
    15     5     6    2
    16    10    11    1
    17    11    12   ar
    18    12    13   ar
    19    13    14   ar
    20    14    15   ar
    21    15    16   ar
    22     5     1    1
    23    16    11   ar
    24    24    19   ar
    25     7     8    1
    26    17    18    1
@<TRIPOS>MOLECULE
*****
 24 26 0 0 0
SMALL
GASTEIGER

@<TRIPOS>ATOM
      1 C          62.7203   90.0611   12.4418 C.2     1  UNL1        0.1045
      2 C          63.4979   90.5700   13.6192 C.2     1  UNL1        0.1076
      3 C          64.1991   91.5543   12.7307 C.2     1  UNL1        0.2500
      4 O          65.2448   92.6101   12.9349 O.2     1  UNL1       -0.2817
      5 C          63.4215   91.0454   11.5532 C.2     1  UNL1        0.2497
      6 O          63.3674   91.3816   10.0923 O.2     1  UNL1       -0.2817
      7 N          61.6746   89.0052   12.2375 N.pl3   1  UNL1       -0.3270
      8 H          61.1434   88.6841   13.0017 H       1  UNL1        0.1472
      9 C          60.6286   89.2085    9.8680 C.3     1  UNL1        0.0261
     10 C          61.4382   88.4386   10.8689 C.3     1  UNL1        0.0920
     11 C          62.0114   87.1020   10.5013 C.ar    1  UNL1       -0.0046
     12 C          62.2833   86.7724    9.0635 C.ar    1  UNL1       -0.0027
     13 C          62.8565   85.4359    8.6959 C.ar    1  UNL1       -0.0003
     14 C          63.1578   84.4291    9.7661 C.ar    1  UNL1       -0.0000
     15 C          62.8859   84.7587   11.2039 C.ar    1  UNL1       -0.0003
     16 C          62.3127   86.0952   11.5715 C.ar    1  UNL1       -0.0027
     17 N          63.5520   90.2338   15.0800 N.pl3   1  UNL1       -0.3088
     18 H          63.5520   90.9541   15.7512 H       1  UNL1        0.1523
     19 C          63.6061   88.8002   15.5183 C.ar    1  UNL1        0.0515
     20 C          62.9618   88.3854   16.8077 C.ar    1  UNL1        0.0353
     21 C          63.0159   86.9518   17.2459 C.ar    1  UNL1        0.1002
     22 N          63.7143   85.9332   16.3946 N.ar    1  UNL1       -0.2422
     23 C          64.3585   86.3481   15.1051 C.ar    1  UNL1        0.1002
     24 C          64.3044   87.7816   14.6670 C.ar    1  UNL1        0.0353
@<TRIPOS>BOND
     1    10     9    1
     2    10     7    1
     3     7     1    1
     4     1     2    2
     5     2    17    1
     6    17    19    1
     7    19    20   ar
     8    20    21   ar
     9    21    22   ar
    10    22    23   ar
    11    23    24   ar
    12     2     3    1
    13     3     4    2
    14     3     5    1
    15     5     6    2
    16    10    11    1
    17    11    12   ar
    18    12    13   ar
    19    13    14   ar
    20    14    15   ar
    21    15    16   ar
    22     5     1    1
    23    16    11   ar
    24    24    19   ar
    25     7     8    1
    26    17    18    1
@<TRIPOS>MOLECULE
*****
 24 26 0 0 0
SMALL
GASTEIGER

@<TRIPOS>ATOM
      1 C          61.4325   88.8101   10.2790 C.2     1  UNL1        0.1045
      2 C          61.1879   89.5687   11.5497 C.2     1  UNL1        0.1076
      3 C          59.9940   90.2286   10.9259 C.2     1  UNL1        0.2500
      4 O          58.9768   91.2317   11.3832 O.2     1  UNL1       -0.2817
      5 C          60.2386   89.4700    9.6552 C.2     1  UNL1        0.2497
      6 O          59.5674   89.4001    8.3155 O.2     1  UNL1       -0.2817
      7 N          62.4497   87.8070    9.8217 N.pl3   1  UNL1       -0.3270
      8 H          63.3975   88.0639    9.7517 H       1  UNL1        0.1472
      9 C          60.9982   86.1890    8.3987 C.3     1  UNL1        0.0261
     10 C          62.0228   86.4124    9.4711 C.3     1  UNL1        0.0920
     11 C          62.6207   85.2412   10.1929 C.ar    1  UNL1       -0.0046
     12 C          62.3498   85.0434   11.6549 C.ar    1  UNL1       -0.0027
     13 C          62.9476   83.8723   12.3767 C.ar    1  UNL1       -0.0003
     14 C          63.8163   82.8989   11.6364 C.ar    1  UNL1       -0.0000
     15 C          64.0872   83.0967   10.1745 C.ar    1  UNL1       -0.0003
     16 C          63.4893   84.2678    9.4527 C.ar    1  UNL1       -0.0027
     17 N          61.8591   89.6386   12.8893 N.pl3   1  UNL1       -0.3088
     18 H          61.4423   89.2103   13.6716 H       1  UNL1        0.1523
     19 C          63.1654   90.3611   13.0369 C.ar    1  UNL1        0.0515
     20 C          63.6543   91.2586   11.9390 C.ar    1  UNL1        0.0353
     21 C          64.9605   91.9810   12.0867 C.ar    1  UNL1        0.1002
     22 N          65.7778   91.8060   13.3322 N.ar    1  UNL1       -0.2422
     23 C          65.2889   90.9085   14.4301 C.ar    1  UNL1        0.1002
     24 C          63.9827   90.1860   14.2825 C.ar    1  UNL1        0.0353
@<TRIPOS>BOND
     1    10     9    1
     2    10     7    1
     3     7     1    1
     4     1     2    2
     5     2    17    1
     6    17    19    1
     7    19    20   ar
     8    20    21   ar
     9    21    22   ar
    10    22    23   ar
    11    23    24   ar
    12     2     3    1
    13     3     4    2
    14     3     5    1
    15     5     6    2
    16    10    11    1
    17    11    12   ar
    18    12    13   ar
    19    13    14   ar
    20    14    15   ar
    21    15    16   ar
    22     5     1    1
    23    16    11   ar
    24    24    19   ar
    25     7     8    1
    26    17    18    1
@<TRIPOS>MOLECULE
*****
 24 26 0 0 0
SMALL
GASTEIGER

@<TRIPOS>ATOM
      1 C          64.2768   91.0082   13.6617 C.2     1  UNL1        0.1045
      2 C          63.7180   89.6163   13.6397 C.2     1  UNL1        0.1076
      3 C          63.5993   89.6403   15.1348 C.2     1  UNL1        0.2500
      4 O          63.1203   88.6731   16.1764 O.2     1  UNL1       -0.2817
      5 C          64.1580   91.0322   15.1568 C.2     1  UNL1        0.2497
      6 O          64.4692   92.0335   16.2296 O.2     1  UNL1       -0.2817
      7 N          64.7558   91.9754   12.6200 N.pl3   1  UNL1       -0.3270
      8 H          64.1087   92.4179   12.0245 H       1  UNL1        0.1472
      9 C          67.1627   91.9073   13.5959 C.3     1  UNL1        0.0261
     10 C          66.2208   92.2684   12.4858 C.3     1  UNL1        0.0920
     11 C          66.7439   92.9224   11.2413 C.ar    1  UNL1       -0.0046
     12 C          67.7542   92.2132   10.3892 C.ar    1  UNL1       -0.0027
     13 C          68.2772   92.8673    9.1448 C.ar    1  UNL1       -0.0003
     14 C          67.7899   94.2306    8.7525 C.ar    1  UNL1       -0.0000
     15 C          66.7796   94.9399    9.6047 C.ar    1  UNL1       -0.0003
     16 C          66.2566   94.2858   10.8491 C.ar    1  UNL1       -0.0027
     17 N          63.4069   88.6151   12.5670 N.pl3   1  UNL1       -0.3088
     18 H          63.9249   87.7800   12.5079 H       1  UNL1        0.1523
     19 C          62.3066   88.8864   11.5842 C.ar    1  UNL1        0.0515
     20 C          61.3131   89.9775   11.8529 C.ar    1  UNL1        0.0353
     21 C          60.2129   90.2487   10.8701 C.ar    1  UNL1        0.1002
     22 N          60.1062   89.4287    9.6186 N.ar    1  UNL1       -0.2422
     23 C          61.0997   88.3376    9.3499 C.ar    1  UNL1        0.1002
     24 C          62.1999   88.0664   10.3327 C.ar    1  UNL1        0.0353
@<TRIPOS>BOND
     1    10     9    1
     2    10     7    1
     3     7     1    1
     4     1     2    2
     5     2    17    1
     6    17    19    1
     7    19    20   ar
     8    20    21   ar
     9    21    22   ar
    10    22    23   ar
    11    23    24   ar
    12     2     3    1
    13     3     4    2
    14     3     5    1
    15     5     6    2
    16    10    11    1
    17    11    12   ar
    18    12    13   ar
    19    13    14   ar
    20    14    15   ar
    21    15    16   ar
    22     5     1    1
    23    16    11   ar
    24    24    19   ar
    25     7     8    1
    26    17    18    1
@<TRIPOS>MOLECULE
*****
 24 26 0 0 0
SMALL
GASTEIGER

@<TRIPOS>ATOM
      1 C          61.9880   88.2578   11.3114 C.2     1  UNL1        0.1045
      2 C          63.0006   89.0402   12.0939 C.2     1  UNL1        0.1076
      3 C          62.8187   90.2042   11.1655 C.2     1  UNL1        0.2500
      4 O          63.4060   91.5806   11.0623 O.2     1  UNL1       -0.2817
      5 C          61.8061   89.4218   10.3830 C.2     1  UNL1        0.2497
      6 O          60.9613   89.6915    9.1731 O.2     1  UNL1       -0.2817
      7 N          61.4007   86.8813   11.4146 N.pl3   1  UNL1       -0.3270
      8 H          60.7470   86.6768   12.1218 H       1  UNL1        0.1472
      9 C          61.3393   85.8814    9.0175 C.3     1  UNL1        0.0261
     10 C          61.8094   85.8165   10.4404 C.3     1  UNL1        0.0920
     11 C          62.6884   84.6868   10.8891 C.ar    1  UNL1       -0.0046
     12 C          62.8212   84.3747   12.3502 C.ar    1  UNL1       -0.0027
     13 C          63.7001   83.2450   12.7989 C.ar    1  UNL1       -0.0003
     14 C          64.4462   82.4275   11.7865 C.ar    1  UNL1       -0.0000
     15 C          64.3133   82.7396   10.3254 C.ar    1  UNL1       -0.0003
     16 C          63.4344   83.8693    9.8767 C.ar    1  UNL1       -0.0027
     17 N          63.8453   88.7705   13.3037 N.pl3   1  UNL1       -0.3088
     18 H          64.1663   87.8579   13.4865 H       1  UNL1        0.1523
     19 C          64.2010   89.8912   14.2352 C.ar    1  UNL1        0.0515
     20 C          65.3171   90.8306   13.8866 C.ar    1  UNL1        0.0353
     21 C          65.6728   91.9513   14.8180 C.ar    1  UNL1        0.1002
     22 N          64.9122   92.1324   16.0982 N.ar    1  UNL1       -0.2422
     23 C          63.7961   91.1930   16.4468 C.ar    1  UNL1        0.1002
     24 C          63.4405   90.0724   15.5154 C.ar    1  UNL1        0.0353
@<TRIPOS>BOND
     1    10     9    1
     2    10     7    1
     3     7     1    1
     4     1     2    2
     5     2    17    1
     6    17    19    1
     7    19    20   ar
     8    20    21   ar
     9    21    22   ar
    10    22    23   ar
    11    23    24   ar
    12     2     3    1
    13     3     4    2
    14     3     5    1
    15     5     6    2
    16    10    11    1
    17    11    12   ar
    18    12    13   ar
    19    13    14   ar
    20    14    15   ar
    21    15    16   ar
    22     5     1    1
    23    16    11   ar
    24    24    19   ar
    25     7     8    1
    26    17    18    1
@<TRIPOS>MOLECULE
*****
 24 26 0 0 0
SMALL
GASTEIGER

@<TRIPOS>ATOM
      1 C          64.0057   87.4524   15.4191 C.2     1  UNL1        0.1045
      2 C          63.9635   88.8704   14.9317 C.2     1  UNL1        0.1076
      3 C          63.2955   89.2892   16.2078 C.2     1  UNL1        0.2500
      4 O          62.7933   90.5879   16.7655 O.2     1  UNL1       -0.2817
      5 C          63.3376   87.8712   16.6952 C.2     1  UNL1        0.2497
      6 O          62.8951   87.1645   17.9421 O.2     1  UNL1       -0.2817
      7 N          64.5079   86.1537   14.8613 N.pl3   1  UNL1       -0.3270
      8 H          65.4761   85.9860   14.7995 H       1  UNL1        0.1472
      9 C          62.5768   84.4925   15.3725 C.3     1  UNL1        0.0261
     10 C          63.5350   85.1103   14.3978 C.3     1  UNL1        0.0920
     11 C          63.5203   84.6848   12.9594 C.ar    1  UNL1       -0.0046
     12 C          62.6444   85.4007   11.9744 C.ar    1  UNL1       -0.0027
     13 C          62.6297   84.9752   10.5361 C.ar    1  UNL1       -0.0003
     14 C          63.4909   83.8338   10.0829 C.ar    1  UNL1       -0.0000
     15 C          64.3669   83.1179   11.0678 C.ar    1  UNL1       -0.0003
     16 C          64.3815   83.5434   12.5061 C.ar    1  UNL1       -0.0027
     17 N          64.4061   89.5770   13.6848 N.pl3   1  UNL1       -0.3088
     18 H          64.2720   89.1546   12.8057 H       1  UNL1        0.1523
     19 C          65.0531   90.9272   13.7773 C.ar    1  UNL1        0.0515
     20 C          65.6662   91.3781   15.0698 C.ar    1  UNL1        0.0353
     21 C          66.3132   92.7282   15.1622 C.ar    1  UNL1        0.1002
     22 N          66.3471   93.6274   13.9621 N.ar    1  UNL1       -0.2422
     23 C          65.7340   93.1765   12.6696 C.ar    1  UNL1        0.1002
     24 C          65.0870   91.8264   12.5772 C.ar    1  UNL1        0.0353
@<TRIPOS>BOND
     1    10     9    1
     2    10     7    1
     3     7     1    1
     4     1     2    2
     5     2    17    1
     6    17    19    1
     7    19    20   ar
     8    20    21   ar
     9    21    22   ar
    10    22    23   ar
    11    23    24   ar
    12     2     3    1
    13     3     4    2
    14     3     5    1
    15     5     6    2
    16    10    11    1
    17    11    12   ar
    18    12    13   ar
    19    13    14   ar
    20    14    15   ar
    21    15    16   ar
    22     5     1    1
    23    16    11   ar
    24    24    19   ar
    25     7     8    1
    26    17    18    1
@<TRIPOS>MOLECULE
*****
 24 26 0 0 0
SMALL
GASTEIGER

@<TRIPOS>ATOM
      1 C          64.0414   87.4694   15.3992 C.2     1  UNL1        0.1045
      2 C          64.0639   88.9210   15.0217 C.2     1  UNL1        0.1076
      3 C          63.3092   89.2583   16.2734 C.2     1  UNL1        0.2500
      4 O          62.7915   90.5231   16.8914 O.2     1  UNL1       -0.2817
      5 C          63.2866   87.8067   16.6509 C.2     1  UNL1        0.2497
      6 O          62.7370   87.0187   17.8029 O.2     1  UNL1       -0.2817
      7 N          64.5591   86.2045   14.7811 N.pl3   1  UNL1       -0.3270
      8 H          65.5262   86.0853   14.6406 H       1  UNL1        0.1472
      9 C          62.6778   84.5204   15.3929 C.3     1  UNL1        0.0261
     10 C          63.6033   85.1214   14.3770 C.3     1  UNL1        0.0920
     11 C          63.5731   84.6392   12.9569 C.ar    1  UNL1       -0.0046
     12 C          62.6549   85.2880   11.9639 C.ar    1  UNL1       -0.0027
     13 C          62.6248   84.8059   10.5439 C.ar    1  UNL1       -0.0003
     14 C          63.5127   83.6749   10.1168 C.ar    1  UNL1       -0.0000
     15 C          64.4309   83.0261   11.1097 C.ar    1  UNL1       -0.0003
     16 C          64.4611   83.5083   12.5297 C.ar    1  UNL1       -0.0027
     17 N          64.6136   89.7089   13.8698 N.pl3   1  UNL1       -0.3088
     18 H          65.5003   90.1308   13.9405 H       1  UNL1        0.1523
     19 C          63.8122   89.8539   12.6100 C.ar    1  UNL1        0.0515
     20 C          62.9514   88.7214   12.1341 C.ar    1  UNL1        0.0353
     21 C          62.1502   88.8665   10.8744 C.ar    1  UNL1        0.1002
     22 N          62.2097   90.1440   10.0906 N.ar    1  UNL1       -0.2422
     23 C          63.0705   91.2765   10.5665 C.ar    1  UNL1        0.1002
     24 C          63.8718   91.1314   11.8262 C.ar    1  UNL1        0.0353
@<TRIPOS>BOND
     1    10     9    1
     2    10     7    1
     3     7     1    1
     4     1     2    2
     5     2    17    1
     6    17    19    1
     7    19    20   ar
     8    20    21   ar
     9    21    22   ar
    10    22    23   ar
    11    23    24   ar
    12     2     3    1
    13     3     4    2
    14     3     5    1
    15     5     6    2
    16    10    11    1
    17    11    12   ar
    18    12    13   ar
    19    13    14   ar
    20    14    15   ar
    21    15    16   ar
    22     5     1    1
    23    16    11   ar
    24    24    19   ar
    25     7     8    1
    26    17    18    1
@<TRIPOS>MOLECULE
*****
 24 26 0 0 0
SMALL
GASTEIGER

@<TRIPOS>ATOM
      1 C          63.9206   87.7802   15.4473 C.2     1  UNL1        0.1045
      2 C          63.8486   86.4234   16.0828 C.2     1  UNL1        0.1076
      3 C          62.9746   86.9782   17.1683 C.2     1  UNL1        0.2500
      4 O          62.3058   86.4111   18.3853 O.2     1  UNL1       -0.2817
      5 C          63.0467   88.3350   16.5329 C.2     1  UNL1        0.2497
      6 O          62.4797   89.6868   16.8511 O.2     1  UNL1       -0.2817
      7 N          64.5895   88.3472   14.2303 N.pl3   1  UNL1       -0.3270
      8 H          65.4274   87.9503   13.8991 H       1  UNL1        0.1472
      9 C          64.1562   90.9037   14.0676 C.3     1  UNL1        0.0261
     10 C          63.9819   89.5191   13.5179 C.3     1  UNL1        0.0920
     11 C          63.1998   89.3062   12.2557 C.ar    1  UNL1       -0.0046
     12 C          62.8503   90.4756   11.3837 C.ar    1  UNL1       -0.0027
     13 C          62.0682   90.2627   10.1216 C.ar    1  UNL1       -0.0003
     14 C          61.6357   88.8804    9.7314 C.ar    1  UNL1       -0.0000
     15 C          61.9852   87.7111   10.6034 C.ar    1  UNL1       -0.0003
     16 C          62.7672   87.9240   11.8655 C.ar    1  UNL1       -0.0027
     17 N          64.4156   85.0716   15.7646 N.pl3   1  UNL1       -0.3088
     18 H          65.2228   84.7544   16.2303 H       1  UNL1        0.1523
     19 C          63.7526   84.2032   14.7367 C.ar    1  UNL1        0.0515
     20 C          64.0658   84.3906   13.2818 C.ar    1  UNL1        0.0353
     21 C          63.4029   83.5223   12.2540 C.ar    1  UNL1        0.1002
     22 N          62.4267   82.4665   12.6811 N.ar    1  UNL1       -0.2422
     23 C          62.1135   82.2791   14.1360 C.ar    1  UNL1        0.1002
     24 C          62.7764   83.1475   15.1638 C.ar    1  UNL1        0.0353
@<TRIPOS>BOND
     1    10     9    1
     2    10     7    1
     3     7     1    1
     4     1     2    2
     5     2    17    1
     6    17    19    1
     7    19    20   ar
     8    20    21   ar
     9    21    22   ar
    10    22    23   ar
    11    23    24   ar
    12     2     3    1
    13     3     4    2
    14     3     5    1
    15     5     6    2
    16    10    11    1
    17    11    12   ar
    18    12    13   ar
    19    13    14   ar
    20    14    15   ar
    21    15    16   ar
    22     5     1    1
    23    16    11   ar
    24    24    19   ar
    25     7     8    1
    26    17    18    1
@<TRIPOS>MOLECULE
*****
 24 26 0 0 0
SMALL
GASTEIGER

@<TRIPOS>ATOM
      1 C          63.9448   87.8567   15.0503 C.2     1  UNL1        0.1045
      2 C          64.0000   89.3050   14.6635 C.2     1  UNL1        0.1076
      3 C          63.4571   89.6851   16.0092 C.2     1  UNL1        0.2500
      4 O          63.1122   90.9779   16.6872 O.2     1  UNL1       -0.2817
      5 C          63.4019   88.2368   16.3960 C.2     1  UNL1        0.2497
      6 O          62.9789   87.4815   17.6210 O.2     1  UNL1       -0.2817
      7 N          64.2897   86.5639   14.3722 N.pl3   1  UNL1       -0.3270
      8 H          65.0906   86.0620   14.6476 H       1  UNL1        0.1472
      9 C          62.9413   86.9526   12.1858 C.3     1  UNL1        0.0261
     10 C          63.4142   86.0358   13.2747 C.3     1  UNL1        0.0920
     11 C          63.0115   84.5908   13.2661 C.ar    1  UNL1       -0.0046
     12 C          63.0070   83.8212   11.9787 C.ar    1  UNL1       -0.0027
     13 C          62.6044   82.3763   11.9702 C.ar    1  UNL1       -0.0003
     14 C          62.2063   81.7010   13.2491 C.ar    1  UNL1       -0.0000
     15 C          62.2108   82.4707   14.5365 C.ar    1  UNL1       -0.0003
     16 C          62.6134   83.9156   14.5450 C.ar    1  UNL1       -0.0027
     17 N          64.4230   90.0602   13.4386 N.pl3   1  UNL1       -0.3088
     18 H          64.1225   89.7636   12.5492 H       1  UNL1        0.1523
     19 C          65.3037   91.2675   13.5686 C.ar    1  UNL1        0.0515
     20 C          65.2650   92.3405   12.5212 C.ar    1  UNL1        0.0353
     21 C          66.1457   93.5477   12.6513 C.ar    1  UNL1        0.1002
     22 N          67.0652   93.6819   13.8288 N.ar    1  UNL1       -0.2422
     23 C          67.1040   92.6089   14.8762 C.ar    1  UNL1        0.1002
     24 C          66.2232   91.4017   14.7461 C.ar    1  UNL1        0.0353
@<TRIPOS>BOND
     1    10     9    1
     2    10     7    1
     3     7     1    1
     4     1     2    2
     5     2    17    1
     6    17    19    1
     7    19    20   ar
     8    20    21   ar
     9    21    22   ar
    10    22    23   ar
    11    23    24   ar
    12     2     3    1
    13     3     4    2
    14     3     5    1
    15     5     6    2
    16    10    11    1
    17    11    12   ar
    18    12    13   ar
    19    13    14   ar
    20    14    15   ar
    21    15    16   ar
    22     5     1    1
    23    16    11   ar
    24    24    19   ar
    25     7     8    1
    26    17    18    1
