@<TRIPOS>MOLECULE
*****
 16 18 0 0 0
SMALL
GASTEIGER

@<TRIPOS>ATOM
      1 O          63.9538   84.1386   15.8114 O.3     1  UNL1       -0.4724
      2 CL         63.2256   90.0624   16.4270 Cl      1  UNL1       -0.0613
      3 C          63.4077   88.5814   16.2731 C.ar    1  UNL1        0.1386
      4 C          62.8870   87.6484   17.3258 C.ar    1  UNL1        0.0339
      5 C          63.0691   86.1674   17.1719 C.ar    1  UNL1        0.0410
      6 C          63.7717   85.6196   15.9653 C.ar    1  UNL1        0.1578
      7 C          64.2924   86.5526   14.9125 C.ar    1  UNL1        0.1366
      8 N          64.1103   88.0335   15.0664 N.ar    1  UNL1       -0.2293
      9 C          63.0182   83.3545   14.9397 C.3     1  UNL1        0.2210
     10 C          63.3586   83.1157   13.4985 C.3     1  UNL1        0.0983
     11 C          62.5433   82.3242   12.5194 C.3     1  UNL1        0.0209
     12 C          63.2549   82.3458   11.1991 C.3     1  UNL1        0.0172
     13 C          64.1773   82.5415   10.0326 C.3     1  UNL1        0.0171
     14 C          64.5101   83.1507   11.3622 C.3     1  UNL1        0.0541
     15 N          64.5742   83.6266   12.7833 N.3     1  UNL1       -0.2966
     16 H          64.5866   84.6463   12.8067 H       1  UNL1        0.1233
@<TRIPOS>BOND
     1     2     3    1
     2     3     4   ar
     3     4     5   ar
     4     5     6   ar
     5     6     1    1
     6     1     9    1
     7    10     9    1
     8    10    11    1
     9    12    11    1
    10    12    13    1
    11    14    13    1
    12    14    15    1
    13     6     7   ar
    14     7     8   ar
    15     8     3   ar
    16    15    10    1
    17    14    12    1
    18    15    16    1
@<TRIPOS>MOLECULE
*****
 16 18 0 0 0
SMALL
GASTEIGER

@<TRIPOS>ATOM
      1 O          63.9676   91.8944   12.7590 O.3     1  UNL1       -0.4724
      2 CL         62.0232   86.6322   10.6309 Cl      1  UNL1       -0.0613
      3 C          62.5093   87.9478   11.1629 C.ar    1  UNL1        0.1386
      4 C          62.3521   89.1931   10.3418 C.ar    1  UNL1        0.0339
      5 C          62.8382   90.5087   10.8738 C.ar    1  UNL1        0.0410
      6 C          63.4815   90.5789   12.2270 C.ar    1  UNL1        0.1578
      7 C          63.6387   89.3335   13.0482 C.ar    1  UNL1        0.1366
      8 N          63.1526   88.0180   12.5161 N.ar    1  UNL1       -0.2293
      9 C          65.3292   92.3986   12.3827 C.3     1  UNL1        0.2210
     10 C          66.3573   92.6473   13.4463 C.3     1  UNL1        0.0983
     11 C          67.6283   91.8750   13.6418 C.3     1  UNL1        0.0209
     12 C          68.3514   92.4623   14.8175 C.3     1  UNL1        0.0172
     13 C          68.8296   93.2453   16.0042 C.3     1  UNL1        0.0171
     14 C          67.5273   93.5976   15.3486 C.3     1  UNL1        0.0541
     15 N          66.2948   93.7119   14.5012 N.3     1  UNL1       -0.2966
     16 H          66.2604   94.6322   14.0627 H       1  UNL1        0.1233
@<TRIPOS>BOND
     1     2     3    1
     2     3     4   ar
     3     4     5   ar
     4     5     6   ar
     5     6     1    1
     6     1     9    1
     7    10     9    1
     8    10    11    1
     9    12    11    1
    10    12    13    1
    11    14    13    1
    12    14    15    1
    13     6     7   ar
    14     7     8   ar
    15     8     3   ar
    16    15    10    1
    17    14    12    1
    18    15    16    1
@<TRIPOS>MOLECULE
*****
 16 18 0 0 0
SMALL
GASTEIGER

@<TRIPOS>ATOM
      1 O          63.6990   91.2037   14.2888 O.3     1  UNL1       -0.4724
      2 CL         63.6795   85.6759   16.6217 Cl      1  UNL1       -0.0613
      3 C          63.6844   87.0578   16.0385 C.ar    1  UNL1        0.1386
      4 C          64.3006   87.3019   14.6929 C.ar    1  UNL1        0.0339
      5 C          64.3055   88.6838   14.1097 C.ar    1  UNL1        0.0410
      6 C          63.6941   89.8218   14.8720 C.ar    1  UNL1        0.1578
      7 C          63.0778   89.5777   16.2176 C.ar    1  UNL1        0.1366
      8 N          63.0730   88.1958   16.8008 N.ar    1  UNL1       -0.2293
      9 C          64.8700   91.6707   13.4761 C.3     1  UNL1        0.2210
     10 C          66.0951   92.1997   14.1610 C.3     1  UNL1        0.0983
     11 C          67.4761   91.6216   14.0682 C.3     1  UNL1        0.0209
     12 C          68.3889   92.4643   14.9089 C.3     1  UNL1        0.0172
     13 C          69.0414   93.4719   15.8082 C.3     1  UNL1        0.0171
     14 C          67.5720   93.5632   15.5212 C.3     1  UNL1        0.0541
     15 N          66.1544   93.3998   15.0590 N.3     1  UNL1       -0.2966
     16 H          65.8594   94.2307   14.5463 H       1  UNL1        0.1233
@<TRIPOS>BOND
     1     2     3    1
     2     3     4   ar
     3     4     5   ar
     4     5     6   ar
     5     6     1    1
     6     1     9    1
     7    10     9    1
     8    10    11    1
     9    12    11    1
    10    12    13    1
    11    14    13    1
    12    14    15    1
    13     6     7   ar
    14     7     8   ar
    15     8     3   ar
    16    15    10    1
    17    14    12    1
    18    15    16    1
@<TRIPOS>MOLECULE
*****
 16 18 0 0 0
SMALL
GASTEIGER

@<TRIPOS>ATOM
      1 O          59.9444   87.9096   10.4673 O.3     1  UNL1       -0.4724
      2 CL         62.0281   84.3763    6.0884 Cl      1  UNL1       -0.0613
      3 C          61.5072   85.2596    7.1831 C.ar    1  UNL1        0.1386
      4 C          62.4168   85.6922    8.2946 C.ar    1  UNL1        0.0339
      5 C          61.8959   86.5755    9.3893 C.ar    1  UNL1        0.0410
      6 C          60.4653   87.0262    9.3726 C.ar    1  UNL1        0.1578
      7 C          59.5557   86.5937    8.2611 C.ar    1  UNL1        0.1366
      8 N          60.0766   85.7104    7.1664 N.ar    1  UNL1       -0.2293
      9 C          60.1822   89.3896   10.4139 C.3     1  UNL1        0.2210
     10 C          61.4185   89.9733   11.0311 C.3     1  UNL1        0.0983
     11 C          62.5121   90.6949   10.3008 C.3     1  UNL1        0.0209
     12 C          63.5478   91.1055   11.3052 C.3     1  UNL1        0.0172
     13 C          64.3916   91.3771   12.5153 C.3     1  UNL1        0.0171
     14 C          63.0941   90.6377   12.6563 C.3     1  UNL1        0.0541
     15 N          61.7782   89.9380   12.4869 N.3     1  UNL1       -0.2966
     16 H          61.0600   90.4144   13.0326 H       1  UNL1        0.1233
@<TRIPOS>BOND
     1     2     3    1
     2     3     4   ar
     3     4     5   ar
     4     5     6   ar
     5     6     1    1
     6     1     9    1
     7    10     9    1
     8    10    11    1
     9    12    11    1
    10    12    13    1
    11    14    13    1
    12    14    15    1
    13     6     7   ar
    14     7     8   ar
    15     8     3   ar
    16    15    10    1
    17    14    12    1
    18    15    16    1
@<TRIPOS>MOLECULE
*****
 16 18 0 0 0
SMALL
GASTEIGER

@<TRIPOS>ATOM
      1 O          64.3087   91.9340   13.2459 O.3     1  UNL1       -0.4724
      2 CL         61.8417   87.6144    9.8911 Cl      1  UNL1       -0.0613
      3 C          62.4584   88.6943   10.7298 C.ar    1  UNL1        0.1386
      4 C          62.6290   90.0747   10.1683 C.ar    1  UNL1        0.0339
      5 C          63.2458   91.1546   11.0070 C.ar    1  UNL1        0.0410
      6 C          63.6919   90.8541   12.4072 C.ar    1  UNL1        0.1578
      7 C          63.5213   89.4737   12.9687 C.ar    1  UNL1        0.1366
      8 N          62.9046   88.3938   12.1300 N.ar    1  UNL1       -0.2293
      9 C          65.7626   92.2675   13.0886 C.3     1  UNL1        0.2210
     10 C          66.2185   93.1090   11.9336 C.3     1  UNL1        0.0983
     11 C          66.9087   92.6112   10.6983 C.3     1  UNL1        0.0209
     12 C          67.1810   93.7905    9.8123 C.3     1  UNL1        0.0172
     13 C          67.3148   95.1325    9.1558 C.3     1  UNL1        0.0171
     14 C          66.6590   95.0172   10.4999 C.3     1  UNL1        0.0541
     15 N          66.0642   94.5960   11.8110 N.3     1  UNL1       -0.2966
     16 H          65.0754   94.8449   11.8383 H       1  UNL1        0.1233
@<TRIPOS>BOND
     1     2     3    1
     2     3     4   ar
     3     4     5   ar
     4     5     6   ar
     5     6     1    1
     6     1     9    1
     7    10     9    1
     8    10    11    1
     9    12    11    1
    10    12    13    1
    11    14    13    1
    12    14    15    1
    13     6     7   ar
    14     7     8   ar
    15     8     3   ar
    16    15    10    1
    17    14    12    1
    18    15    16    1
@<TRIPOS>MOLECULE
*****
 16 18 0 0 0
SMALL
GASTEIGER

@<TRIPOS>ATOM
      1 O          63.9542   84.5663   15.5320 O.3     1  UNL1       -0.4724
      2 CL         63.4536   90.5077   16.2027 Cl      1  UNL1       -0.0613
      3 C          63.5787   89.0223   16.0350 C.ar    1  UNL1        0.1386
      4 C          64.2975   88.4599   14.8447 C.ar    1  UNL1        0.0339
      5 C          64.4226   86.9745   14.6770 C.ar    1  UNL1        0.0410
      6 C          63.8291   86.0517   15.6997 C.ar    1  UNL1        0.1578
      7 C          63.1103   86.6141   16.8900 C.ar    1  UNL1        0.1366
      8 N          62.9852   88.0995   17.0577 N.ar    1  UNL1       -0.2293
      9 C          62.7238   83.7231   15.3738 C.3     1  UNL1        0.2210
     10 C          62.7002   82.6124   14.3659 C.3     1  UNL1        0.0983
     11 C          63.0400   82.7356   12.9101 C.3     1  UNL1        0.0209
     12 C          62.8825   81.3828   12.2813 C.3     1  UNL1        0.0172
     13 C          62.6436   79.9414   11.9421 C.3     1  UNL1        0.0171
     14 C          62.4454   80.4237   13.3485 C.3     1  UNL1        0.0541
     15 N          62.3327   81.1836   14.6369 N.3     1  UNL1       -0.2966
     16 H          62.9689   80.7878   15.3290 H       1  UNL1        0.1233
@<TRIPOS>BOND
     1     2     3    1
     2     3     4   ar
     3     4     5   ar
     4     5     6   ar
     5     6     1    1
     6     1     9    1
     7    10     9    1
     8    10    11    1
     9    12    11    1
    10    12    13    1
    11    14    13    1
    12    14    15    1
    13     6     7   ar
    14     7     8   ar
    15     8     3   ar
    16    15    10    1
    17    14    12    1
    18    15    16    1
@<TRIPOS>MOLECULE
*****
 16 18 0 0 0
SMALL
GASTEIGER

@<TRIPOS>ATOM
      1 O          63.8025   83.8553   12.8153 O.3     1  UNL1       -0.4724
      2 CL         62.6955   86.6660   17.9994 Cl      1  UNL1       -0.0613
      3 C          62.9723   85.9633   16.7034 C.ar    1  UNL1        0.1386
      4 C          64.1344   86.3858   15.8544 C.ar    1  UNL1        0.0339
      5 C          64.4112   85.6832   14.5584 C.ar    1  UNL1        0.0410
      6 C          63.5257   84.5580   14.1114 C.ar    1  UNL1        0.1578
      7 C          62.3636   84.1355   14.9603 C.ar    1  UNL1        0.1366
      8 N          62.0868   84.8382   16.2563 N.ar    1  UNL1       -0.2293
      9 C          62.7523   83.8147   11.7451 C.3     1  UNL1        0.2210
     10 C          62.3058   85.0849   11.0839 C.3     1  UNL1        0.0983
     11 C          62.5391   85.4622    9.6510 C.3     1  UNL1        0.0209
     12 C          61.9251   86.8113    9.4210 C.3     1  UNL1        0.0172
     13 C          61.2320   88.1396    9.4937 C.3     1  UNL1        0.0171
     14 C          61.3122   87.2678   10.7117 C.3     1  UNL1        0.0541
     15 N          61.5475   86.2009   11.7395 N.3     1  UNL1       -0.2966
     16 H          60.6543   85.8539   12.0890 H       1  UNL1        0.1233
@<TRIPOS>BOND
     1     2     3    1
     2     3     4   ar
     3     4     5   ar
     4     5     6   ar
     5     6     1    1
     6     1     9    1
     7    10     9    1
     8    10    11    1
     9    12    11    1
    10    12    13    1
    11    14    13    1
    12    14    15    1
    13     6     7   ar
    14     7     8   ar
    15     8     3   ar
    16    15    10    1
    17    14    12    1
    18    15    16    1
@<TRIPOS>MOLECULE
*****
 16 18 0 0 0
SMALL
GASTEIGER

@<TRIPOS>ATOM
      1 O          61.8640   85.9200   12.2492 O.3     1  UNL1       -0.4724
      2 CL         59.3859   88.3402    7.3501 Cl      1  UNL1       -0.0613
      3 C          60.0054   87.7351    8.5749 C.ar    1  UNL1        0.1386
      4 C          60.7905   86.4616    8.4672 C.ar    1  UNL1        0.0339
      5 C          61.4100   85.8565    9.6919 C.ar    1  UNL1        0.0410
      6 C          61.2445   86.5250   11.0245 C.ar    1  UNL1        0.1578
      7 C          60.4594   87.7986   11.1322 C.ar    1  UNL1        0.1366
      8 N          59.8399   88.4036    9.9074 N.ar    1  UNL1       -0.2293
      9 C          62.9833   84.9307   12.1129 C.3     1  UNL1        0.2210
     10 C          62.7752   83.5020   12.5198 C.3     1  UNL1        0.0983
     11 C          62.9069   82.3031   11.6281 C.3     1  UNL1        0.0209
     12 C          62.6120   81.0815   12.4470 C.3     1  UNL1        0.0172
     13 C          62.2748   80.0663   13.4984 C.3     1  UNL1        0.0171
     14 C          62.2980   81.5254   13.8450 C.3     1  UNL1        0.0541
     15 N          62.3988   83.0214   13.8901 N.3     1  UNL1       -0.2966
     16 H          63.1129   83.3001   14.5629 H       1  UNL1        0.1233
@<TRIPOS>BOND
     1     2     3    1
     2     3     4   ar
     3     4     5   ar
     4     5     6   ar
     5     6     1    1
     6     1     9    1
     7    10     9    1
     8    10    11    1
     9    12    11    1
    10    12    13    1
    11    14    13    1
    12    14    15    1
    13     6     7   ar
    14     7     8   ar
    15     8     3   ar
    16    15    10    1
    17    14    12    1
    18    15    16    1
@<TRIPOS>MOLECULE
*****
 16 18 0 0 0
SMALL
GASTEIGER

@<TRIPOS>ATOM
      1 O          66.0048   92.2221   12.8115 O.3     1  UNL1       -0.4724
      2 CL         67.5744   95.9384    8.3701 Cl      1  UNL1       -0.0613
      3 C          67.1820   95.0093    9.4804 C.ar    1  UNL1        0.1386
      4 C          66.5726   95.5572   10.7367 C.ar    1  UNL1        0.0339
      5 C          66.1802   94.6282   11.8471 C.ar    1  UNL1        0.0410
      6 C          66.3972   93.1512   11.7011 C.ar    1  UNL1        0.1578
      7 C          67.0066   92.6032   10.4448 C.ar    1  UNL1        0.1366
      8 N          67.3990   93.5323    9.3344 N.ar    1  UNL1       -0.2293
      9 C          64.6498   91.5789   12.8076 C.3     1  UNL1        0.2210
     10 C          64.2029   90.7642   13.9851 C.3     1  UNL1        0.0983
     11 C          64.3220   89.2754   14.1235 C.3     1  UNL1        0.0209
     12 C          63.7512   88.8864   15.4550 C.3     1  UNL1        0.0172
     13 C          63.1282   88.8051   16.8170 C.3     1  UNL1        0.0171
     14 C          63.2792   90.1348   16.1395 C.3     1  UNL1        0.0541
     15 N          63.5583   91.2955   15.2312 N.3     1  UNL1       -0.2966
     16 H          64.1869   91.9529   15.6927 H       1  UNL1        0.1233
@<TRIPOS>BOND
     1     2     3    1
     2     3     4   ar
     3     4     5   ar
     4     5     6   ar
     5     6     1    1
     6     1     9    1
     7    10     9    1
     8    10    11    1
     9    12    11    1
    10    12    13    1
    11    14    13    1
    12    14    15    1
    13     6     7   ar
    14     7     8   ar
    15     8     3   ar
    16    15    10    1
    17    14    12    1
    18    15    16    1
