@<TRIPOS>MOLECULE
*****
 35 39 0 0 0
SMALL
GASTEIGER

@<TRIPOS>ATOM
      1 C          64.3530   85.3758   14.2325 C.ar    1  UNL1        0.1285
      2 N          64.5798   86.7278   14.8413 N.ar    1  UNL1       -0.1992
      3 C          64.0093   87.9506   14.1862 C.ar    1  UNL1        0.2215
      4 N          63.2119   87.8215   12.9223 N.ar    1  UNL1       -0.2179
      5 C          62.9851   86.4695   12.3135 C.ar    1  UNL1        0.0642
      6 C          63.5556   85.2466   12.9686 C.ar    1  UNL1        0.0232
      7 C          63.1695   84.0554   12.1427 C.3     1  UNL1        0.0311
      8 C          62.3604   84.5421   10.9772 C.3     1  UNL1        0.0151
      9 C          62.2464   86.0341   11.0827 C.3     1  UNL1        0.0627
     10 C          61.5210   86.9327   10.1256 C.ar    1  UNL1       -0.0168
     11 C          60.6906   86.3420    9.0249 C.ar    1  UNL1       -0.0016
     12 C          59.9652   87.2407    8.0676 C.ar    1  UNL1        0.0293
     13 C          60.0702   88.7300    8.2111 C.ar    1  UNL1        0.1401
     14 F          59.3448   89.6287    7.2540 F       1  UNL1       -0.2042
     15 C          60.9006   89.3208    9.3119 C.ar    1  UNL1        0.0293
     16 C          61.6260   88.4222   10.2690 C.ar    1  UNL1       -0.0016
     17 C          64.0218   83.0170   15.2700 C.3     1  UNL1        0.1096
     18 N          64.9236   84.1529   14.8876 N.pl3   1  UNL1       -0.3168
     19 H          65.8900   84.0960   15.0667 H       1  UNL1        0.1482
     20 N          64.2361   89.3027   14.7950 N.pl3   1  UNL1       -0.2824
     21 H          64.0745   89.4433   15.7559 H       1  UNL1        0.1551
     22 C          64.7092   90.4404   13.9396 C.ar    1  UNL1        0.0536
     23 C          63.9371   90.8286   12.7135 C.ar    1  UNL1        0.0164
     24 C          64.4102   91.9664   11.8582 C.ar    1  UNL1        0.0236
     25 C          65.6555   92.7161   12.2289 C.ar    1  UNL1        0.1185
     26 C          66.4276   92.3279   13.4549 C.ar    1  UNL1        0.1575
     27 C          65.9544   91.1901   14.3103 C.ar    1  UNL1        0.0531
     28 N          66.1286   93.8538   11.3736 N.ar    1  UNL1       -0.2053
     29 C          66.1935   95.2958   11.7815 C.ar    1  UNL1        0.2014
     30 N          66.7248   96.0826   10.6202 N.ar    1  UNL1       -0.2073
     31 C          66.9883   95.1269    9.4945 C.ar    1  UNL1        0.1613
     32 C          67.5259   95.4856    8.1408 C.3     1  UNL1        0.0756
     33 N          66.6197   93.7494    9.9602 N.ar    1  UNL1       -0.1487
     34 O          67.6728   93.0775   13.8257 O.3     1  UNL1       -0.4699
     35 C          67.9322   93.4390   15.2581 C.3     1  UNL1        0.2525
@<TRIPOS>BOND
     1    17    18    1
     2    18     1    1
     3     1     2   ar
     4     2     3   ar
     5     3    20    1
     6    20    22    1
     7    22    23   ar
     8    23    24   ar
     9    24    25   ar
    10    25    28    1
    11    28    29   ar
    12    29    30   ar
    13    30    31   ar
    14    31    32    1
    15    31    33   ar
    16    25    26   ar
    17    26    34    1
    18    34    35    1
    19    26    27   ar
    20     3     4   ar
    21     4     5   ar
    22     5     6   ar
    23     6     7    1
    24     7     8    1
    25     8     9    1
    26     9    10    1
    27    10    11   ar
    28    11    12   ar
    29    12    13   ar
    30    13    14    1
    31    13    15   ar
    32    15    16   ar
    33     6     1   ar
    34    16    10   ar
    35    27    22   ar
    36     9     5    1
    37    33    28   ar
    38    18    19    1
    39    20    21    1
@<TRIPOS>MOLECULE
*****
 35 39 0 0 0
SMALL
GASTEIGER

@<TRIPOS>ATOM
      1 C          60.5133   89.0535    9.0713 C.ar    1  UNL1        0.1285
      2 N          60.6983   89.7804   10.3704 N.ar    1  UNL1       -0.1992
      3 C          61.3808   89.1002   11.5199 C.ar    1  UNL1        0.2215
      4 N          61.8784   87.6931   11.3705 N.ar    1  UNL1       -0.2179
      5 C          61.6935   86.9662   10.0715 C.ar    1  UNL1        0.0642
      6 C          61.0109   87.6463    8.9219 C.ar    1  UNL1        0.0232
      7 C          60.9717   86.6848    7.7714 C.3     1  UNL1        0.0311
      8 C          61.6300   85.4103    8.2099 C.3     1  UNL1        0.0151
      9 C          62.0761   85.5841    9.6314 C.3     1  UNL1        0.0627
     10 C          62.7810   84.5565   10.4663 C.ar    1  UNL1       -0.0168
     11 C          62.4937   84.4581   11.9352 C.ar    1  UNL1       -0.0016
     12 C          63.1987   83.4304   12.7701 C.ar    1  UNL1        0.0293
     13 C          64.1907   82.5011   12.1361 C.ar    1  UNL1        0.1401
     14 F          64.8956   81.4735   12.9709 F       1  UNL1       -0.2042
     15 C          64.4779   82.5995   10.6671 C.ar    1  UNL1        0.0293
     16 C          63.7731   83.6271    9.8322 C.ar    1  UNL1       -0.0016
     17 C          59.0217   88.9297    6.9477 C.3     1  UNL1        0.1096
     18 N          59.8308   89.7338    7.9218 N.pl3   1  UNL1       -0.3168
     19 H          59.9138   90.7080    7.8067 H       1  UNL1        0.1482
     20 N          61.5658   89.8272   12.8189 N.pl3   1  UNL1       -0.2824
     21 H          60.8057   89.9349   13.4353 H       1  UNL1        0.1551
     22 C          62.9089   90.3899   13.1788 C.ar    1  UNL1        0.0536
     23 C          63.6466   89.8640   14.3743 C.ar    1  UNL1        0.0164
     24 C          64.9897   90.4267   14.7341 C.ar    1  UNL1        0.0236
     25 C          65.5951   91.5154   13.8983 C.ar    1  UNL1        0.1185
     26 C          64.8574   92.0413   12.7029 C.ar    1  UNL1        0.1575
     27 C          63.5143   91.4785   12.3431 C.ar    1  UNL1        0.0531
     28 N          66.9381   92.0781   14.2582 N.ar    1  UNL1       -0.2053
     29 C          68.2439   91.7266   13.6091 C.ar    1  UNL1        0.2014
     30 N          69.3241   92.5224   14.2800 N.ar    1  UNL1       -0.2073
     31 C          68.6858   93.3656   15.3437 C.ar    1  UNL1        0.1613
     32 C          69.3973   94.3166   16.2601 C.3     1  UNL1        0.0756
     33 N          67.2112   93.0911   15.3302 N.ar    1  UNL1       -0.1487
     34 O          65.4627   93.1299   11.8671 O.3     1  UNL1       -0.4699
     35 C          66.2272   92.7839   10.6239 C.3     1  UNL1        0.2525
@<TRIPOS>BOND
     1    17    18    1
     2    18     1    1
     3     1     2   ar
     4     2     3   ar
     5     3    20    1
     6    20    22    1
     7    22    23   ar
     8    23    24   ar
     9    24    25   ar
    10    25    28    1
    11    28    29   ar
    12    29    30   ar
    13    30    31   ar
    14    31    32    1
    15    31    33   ar
    16    25    26   ar
    17    26    34    1
    18    34    35    1
    19    26    27   ar
    20     3     4   ar
    21     4     5   ar
    22     5     6   ar
    23     6     7    1
    24     7     8    1
    25     8     9    1
    26     9    10    1
    27    10    11   ar
    28    11    12   ar
    29    12    13   ar
    30    13    14    1
    31    13    15   ar
    32    15    16   ar
    33     6     1   ar
    34    16    10   ar
    35    27    22   ar
    36     9     5    1
    37    33    28   ar
    38    18    19    1
    39    20    21    1
@<TRIPOS>MOLECULE
*****
 35 39 0 0 0
SMALL
GASTEIGER

@<TRIPOS>ATOM
      1 C          64.3876   85.2142   14.2542 C.ar    1  UNL1        0.1285
      2 N          64.5393   86.5841   14.8461 N.ar    1  UNL1       -0.1992
      3 C          63.8902   87.7632   14.1842 C.ar    1  UNL1        0.2215
      4 N          63.0894   87.5725   12.9304 N.ar    1  UNL1       -0.2179
      5 C          62.9376   86.2027   12.3384 C.ar    1  UNL1        0.0642
      6 C          63.5868   85.0235   13.0003 C.ar    1  UNL1        0.0232
      7 C          63.2643   83.8022   12.1914 C.3     1  UNL1        0.0311
      8 C          62.4159   84.2266   11.0295 C.3     1  UNL1        0.0151
      9 C          62.2139   85.7101   11.1203 C.3     1  UNL1        0.0627
     10 C          61.4266   86.5531   10.1614 C.ar    1  UNL1       -0.0168
     11 C          60.9593   87.9181   10.5720 C.ar    1  UNL1       -0.0016
     12 C          60.1719   88.7611    9.6131 C.ar    1  UNL1        0.0293
     13 C          59.8519   88.2393    8.2438 C.ar    1  UNL1        0.1401
     14 F          59.0646   89.0823    7.2849 F       1  UNL1       -0.2042
     15 C          60.3193   86.8743    7.8333 C.ar    1  UNL1        0.0293
     16 C          61.1066   86.0312    8.7920 C.ar    1  UNL1       -0.0016
     17 C          64.2120   82.8425   15.3003 C.3     1  UNL1        0.1096
     18 N          65.0368   84.0350   14.9162 N.pl3   1  UNL1       -0.3168
     19 H          66.0042   84.0438   15.0986 H       1  UNL1        0.1482
     20 N          64.0419   89.1332   14.7762 N.pl3   1  UNL1       -0.2824
     21 H          63.7995   89.2926   15.7169 H       1  UNL1        0.1551
     22 C          64.5630   90.2602   13.9346 C.ar    1  UNL1        0.0536
     23 C          65.7432   91.0606   14.4002 C.ar    1  UNL1        0.0164
     24 C          66.2643   92.1876   13.5587 C.ar    1  UNL1        0.0236
     25 C          65.6052   92.5143   12.2514 C.ar    1  UNL1        0.1185
     26 C          64.4251   91.7141   11.7858 C.ar    1  UNL1        0.1575
     27 C          63.9040   90.5870   12.6274 C.ar    1  UNL1        0.0531
     28 N          66.1263   93.6414   11.4099 N.ar    1  UNL1       -0.2053
     29 C          66.2228   95.0797   11.8245 C.ar    1  UNL1        0.2014
     30 N          66.7985   95.8553   10.6768 N.ar    1  UNL1       -0.2073
     31 C          67.0578   94.8963    9.5530 C.ar    1  UNL1        0.1613
     32 C          67.6317   95.2444    8.2115 C.3     1  UNL1        0.0756
     33 N          66.6423   93.5280   10.0060 N.ar    1  UNL1       -0.1487
     34 O          63.7660   92.0408   10.4786 O.3     1  UNL1       -0.4699
     35 C          62.7545   91.1007    9.8929 C.3     1  UNL1        0.2525
@<TRIPOS>BOND
     1    17    18    1
     2    18     1    1
     3     1     2   ar
     4     2     3   ar
     5     3    20    1
     6    20    22    1
     7    22    23   ar
     8    23    24   ar
     9    24    25   ar
    10    25    28    1
    11    28    29   ar
    12    29    30   ar
    13    30    31   ar
    14    31    32    1
    15    31    33   ar
    16    25    26   ar
    17    26    34    1
    18    34    35    1
    19    26    27   ar
    20     3     4   ar
    21     4     5   ar
    22     5     6   ar
    23     6     7    1
    24     7     8    1
    25     8     9    1
    26     9    10    1
    27    10    11   ar
    28    11    12   ar
    29    12    13   ar
    30    13    14    1
    31    13    15   ar
    32    15    16   ar
    33     6     1   ar
    34    16    10   ar
    35    27    22   ar
    36     9     5    1
    37    33    28   ar
    38    18    19    1
    39    20    21    1
@<TRIPOS>MOLECULE
*****
 35 39 0 0 0
SMALL
GASTEIGER

@<TRIPOS>ATOM
      1 C          59.8418   88.6138    8.0234 C.ar    1  UNL1        0.1285
      2 N          59.9809   89.6750    9.0744 N.ar    1  UNL1       -0.1992
      3 C          60.7618   89.3952   10.3241 C.ar    1  UNL1        0.2215
      4 N          61.4038   88.0541   10.5228 N.ar    1  UNL1       -0.2179
      5 C          61.2647   86.9929    9.4719 C.ar    1  UNL1        0.0642
      6 C          60.4837   87.2727    8.2222 C.ar    1  UNL1        0.0232
      7 C          60.5185   86.0402    7.3680 C.3     1  UNL1        0.0311
      8 C          61.3210   84.9986    8.0899 C.3     1  UNL1        0.0151
      9 C          61.7822   85.5874    9.3901 C.3     1  UNL1        0.0627
     10 C          62.6146   84.8926   10.4266 C.ar    1  UNL1       -0.0168
     11 C          62.4703   85.2595   11.8738 C.ar    1  UNL1       -0.0016
     12 C          63.3028   84.5648   12.9104 C.ar    1  UNL1        0.0293
     13 C          64.2795   83.5031   12.4996 C.ar    1  UNL1        0.1401
     14 F          65.1120   82.8084   13.5361 F       1  UNL1       -0.2042
     15 C          64.4238   83.1362   11.0523 C.ar    1  UNL1        0.0293
     16 C          63.5914   83.8309   10.0158 C.ar    1  UNL1       -0.0016
     17 C          59.3830   90.0998    5.9422 C.3     1  UNL1        0.1096
     18 N          59.0608   88.8937    6.7737 N.pl3   1  UNL1       -0.3168
     19 H          58.3367   88.2858    6.4992 H       1  UNL1        0.1482
     20 N          60.9009   90.4564   11.3751 N.pl3   1  UNL1       -0.2824
     21 H          60.1003   90.9080   11.7277 H       1  UNL1        0.1551
     22 C          62.2599   90.8295   11.8888 C.ar    1  UNL1        0.0536
     23 C          63.2268   91.5509   10.9973 C.ar    1  UNL1        0.0164
     24 C          64.5858   91.9240   11.5111 C.ar    1  UNL1        0.0236
     25 C          64.9779   91.5756   12.9165 C.ar    1  UNL1        0.1185
     26 C          64.0111   90.8543   13.8079 C.ar    1  UNL1        0.1575
     27 C          62.6521   90.4812   13.2941 C.ar    1  UNL1        0.0531
     28 N          66.3369   91.9487   13.4302 N.ar    1  UNL1       -0.2053
     29 C          67.6464   91.6293   12.7722 C.ar    1  UNL1        0.2014
     30 N          68.7439   92.1899   13.6274 N.ar    1  UNL1       -0.2073
     31 C          68.1125   92.8558   14.8140 C.ar    1  UNL1        0.1613
     32 C          68.8409   93.5490   15.9272 C.3     1  UNL1        0.0756
     33 N          66.6249   92.7067   14.6921 N.ar    1  UNL1       -0.1487
     34 O          64.4032   90.5059   15.2132 O.3     1  UNL1       -0.4699
     35 C          63.3966   89.8970   16.1437 C.3     1  UNL1        0.2525
@<TRIPOS>BOND
     1    17    18    1
     2    18     1    1
     3     1     2   ar
     4     2     3   ar
     5     3    20    1
     6    20    22    1
     7    22    23   ar
     8    23    24   ar
     9    24    25   ar
    10    25    28    1
    11    28    29   ar
    12    29    30   ar
    13    30    31   ar
    14    31    32    1
    15    31    33   ar
    16    25    26   ar
    17    26    34    1
    18    34    35    1
    19    26    27   ar
    20     3     4   ar
    21     4     5   ar
    22     5     6   ar
    23     6     7    1
    24     7     8    1
    25     8     9    1
    26     9    10    1
    27    10    11   ar
    28    11    12   ar
    29    12    13   ar
    30    13    14    1
    31    13    15   ar
    32    15    16   ar
    33     6     1   ar
    34    16    10   ar
    35    27    22   ar
    36     9     5    1
    37    33    28   ar
    38    18    19    1
    39    20    21    1
@<TRIPOS>MOLECULE
*****
 35 39 0 0 0
SMALL
GASTEIGER

@<TRIPOS>ATOM
      1 C          64.8526   90.8741   13.6095 C.ar    1  UNL1        0.1285
      2 N          64.8359   89.6807   14.5181 N.ar    1  UNL1       -0.1992
      3 C          64.0603   88.4559   14.1333 C.ar    1  UNL1        0.2215
      4 N          63.3012   88.4244   12.8399 N.ar    1  UNL1       -0.2179
      5 C          63.3178   89.6178   11.9313 C.ar    1  UNL1        0.0642
      6 C          64.0935   90.8426   12.3161 C.ar    1  UNL1        0.0232
      7 C          63.9255   91.8592   11.2260 C.3     1  UNL1        0.0311
      8 C          63.0460   91.2625   10.1674 C.3     1  UNL1        0.0151
      9 C          62.6705   89.8773   10.6034 C.3     1  UNL1        0.0627
     10 C          61.8003   88.9197    9.8445 C.ar    1  UNL1       -0.0168
     11 C          60.5065   89.3917    9.2501 C.ar    1  UNL1       -0.0016
     12 C          59.6363   88.4341    8.4912 C.ar    1  UNL1        0.0293
     13 C          60.0599   87.0046    8.3268 C.ar    1  UNL1        0.1401
     14 F          59.1897   86.0470    7.5680 F       1  UNL1       -0.2042
     15 C          61.3537   86.5327    8.9213 C.ar    1  UNL1        0.0293
     16 C          62.2239   87.4902    9.6801 C.ar    1  UNL1       -0.0016
     17 C          67.0944   91.9950   14.2933 C.3     1  UNL1        0.1096
     18 N          65.6283   92.0990   13.9943 N.pl3   1  UNL1       -0.3168
     19 H          65.1750   92.9712   14.0507 H       1  UNL1        0.1482
     20 N          64.0436   87.2624   15.0419 N.pl3   1  UNL1       -0.2824
     21 H          64.1977   87.3767   16.0075 H       1  UNL1        0.1551
     22 C          63.7923   85.8949   14.4791 C.ar    1  UNL1        0.0536
     23 C          63.9666   84.6833   15.3461 C.ar    1  UNL1        0.0164
     24 C          63.7153   83.3158   14.7833 C.ar    1  UNL1        0.0236
     25 C          63.2896   83.1599   13.3534 C.ar    1  UNL1        0.1185
     26 C          63.1153   84.3714   12.4865 C.ar    1  UNL1        0.1575
     27 C          63.3666   85.7389   13.0493 C.ar    1  UNL1        0.0531
     28 N          63.0383   81.7924   12.7907 N.ar    1  UNL1       -0.2053
     29 C          62.5917   80.5884   13.5659 C.ar    1  UNL1        0.2014
     30 N          62.4668   79.4406   12.6082 N.ar    1  UNL1       -0.2073
     31 C          62.8362   79.9353   11.2412 C.ar    1  UNL1        0.1613
     32 C          62.8500   79.1197    9.9823 C.3     1  UNL1        0.0756
     33 N          63.1894   81.3888   11.3539 N.ar    1  UNL1       -0.1487
     34 O          62.6896   84.2155   11.0566 O.3     1  UNL1       -0.4699
     35 C          63.7220   84.0726    9.9780 C.3     1  UNL1        0.2525
@<TRIPOS>BOND
     1    17    18    1
     2    18     1    1
     3     1     2   ar
     4     2     3   ar
     5     3    20    1
     6    20    22    1
     7    22    23   ar
     8    23    24   ar
     9    24    25   ar
    10    25    28    1
    11    28    29   ar
    12    29    30   ar
    13    30    31   ar
    14    31    32    1
    15    31    33   ar
    16    25    26   ar
    17    26    34    1
    18    34    35    1
    19    26    27   ar
    20     3     4   ar
    21     4     5   ar
    22     5     6   ar
    23     6     7    1
    24     7     8    1
    25     8     9    1
    26     9    10    1
    27    10    11   ar
    28    11    12   ar
    29    12    13   ar
    30    13    14    1
    31    13    15   ar
    32    15    16   ar
    33     6     1   ar
    34    16    10   ar
    35    27    22   ar
    36     9     5    1
    37    33    28   ar
    38    18    19    1
    39    20    21    1
@<TRIPOS>MOLECULE
*****
 35 39 0 0 0
SMALL
GASTEIGER

@<TRIPOS>ATOM
      1 C          62.4711   85.5355    8.7369 C.ar    1  UNL1        0.1285
      2 N          62.2226   87.0148    8.7460 N.ar    1  UNL1       -0.1992
      3 C          62.2159   87.7662   10.0442 C.ar    1  UNL1        0.2215
      4 N          62.4576   87.0384   11.3333 N.ar    1  UNL1       -0.2179
      5 C          62.7060   85.5591   11.3242 C.ar    1  UNL1        0.0642
      6 C          62.7128   84.8077   10.0260 C.ar    1  UNL1        0.0232
      7 C          62.9840   83.3636   10.3277 C.3     1  UNL1        0.0311
      8 C          63.1448   83.2225   11.8123 C.3     1  UNL1        0.0151
      9 C          62.9731   84.5794   12.4282 C.3     1  UNL1        0.0627
     10 C          63.0541   84.9002   13.8913 C.ar    1  UNL1       -0.0168
     11 C          62.0701   84.2943   14.8476 C.ar    1  UNL1       -0.0016
     12 C          62.1511   84.6151   16.3107 C.ar    1  UNL1        0.0293
     13 C          63.2161   85.5418   16.8174 C.ar    1  UNL1        0.1401
     14 F          63.2971   85.8626   18.2804 F       1  UNL1       -0.2042
     15 C          64.2001   86.1478   15.8610 C.ar    1  UNL1        0.0293
     16 C          64.1191   85.8270   14.3980 C.ar    1  UNL1       -0.0016
     17 C          61.2580   84.7842    6.5657 C.3     1  UNL1        0.1096
     18 N          62.4778   84.7841    7.4386 N.pl3   1  UNL1       -0.3168
     19 H          63.2828   84.2909    7.1595 H       1  UNL1        0.1482
     20 N          61.9675   89.2455   10.0533 N.pl3   1  UNL1       -0.2824
     21 H          61.1931   89.6176    9.5725 H       1  UNL1        0.1551
     22 C          62.8989   90.1578   10.7950 C.ar    1  UNL1        0.0536
     23 C          63.6800   91.1993   10.0500 C.ar    1  UNL1        0.0164
     24 C          64.6114   92.1116   10.7918 C.ar    1  UNL1        0.0236
     25 C          64.7617   91.9823   12.2787 C.ar    1  UNL1        0.1185
     26 C          63.9806   90.9409   13.0237 C.ar    1  UNL1        0.1575
     27 C          63.0492   90.0285   12.2819 C.ar    1  UNL1        0.0531
     28 N          65.6931   92.8946   13.0204 N.ar    1  UNL1       -0.2053
     29 C          65.9911   94.3229   12.6724 C.ar    1  UNL1        0.2014
     30 N          66.9723   94.8498   13.6773 N.ar    1  UNL1       -0.2073
     31 C          67.2806   93.7472   14.6463 C.ar    1  UNL1        0.1613
     32 C          68.2154   93.8371   15.8160 C.3     1  UNL1        0.0756
     33 N          66.4901   92.5387   14.2403 N.ar    1  UNL1       -0.1487
     34 O          64.1308   90.8115   14.5105 O.3     1  UNL1       -0.4699
     35 C          63.5130   89.6485   15.2285 C.3     1  UNL1        0.2525
@<TRIPOS>BOND
     1    17    18    1
     2    18     1    1
     3     1     2   ar
     4     2     3   ar
     5     3    20    1
     6    20    22    1
     7    22    23   ar
     8    23    24   ar
     9    24    25   ar
    10    25    28    1
    11    28    29   ar
    12    29    30   ar
    13    30    31   ar
    14    31    32    1
    15    31    33   ar
    16    25    26   ar
    17    26    34    1
    18    34    35    1
    19    26    27   ar
    20     3     4   ar
    21     4     5   ar
    22     5     6   ar
    23     6     7    1
    24     7     8    1
    25     8     9    1
    26     9    10    1
    27    10    11   ar
    28    11    12   ar
    29    12    13   ar
    30    13    14    1
    31    13    15   ar
    32    15    16   ar
    33     6     1   ar
    34    16    10   ar
    35    27    22   ar
    36     9     5    1
    37    33    28   ar
    38    18    19    1
    39    20    21    1
