@<TRIPOS>MOLECULE
*****
 25 28 0 0 0
SMALL
GASTEIGER

@<TRIPOS>ATOM
      1 C          61.5087   87.1825   10.7881 C.3     1  UNL1        0.1140
      2 C          62.2335   88.4560   11.1094 C.ar    1  UNL1        0.0273
      3 C          63.2239   88.8043   12.1807 C.ar    1  UNL1        0.1379
      4 F          63.6470   87.7662   13.1772 F       1  UNL1       -0.2044
      5 C          63.7913   90.1909   12.2553 C.ar    1  UNL1        0.0294
      6 C          63.3682   91.2290   11.2588 C.ar    1  UNL1        0.0023
      7 C          62.3777   90.8807   10.1875 C.ar    1  UNL1        0.0014
      8 C          61.8103   89.4941   10.1128 C.ar    1  UNL1        0.0173
      9 C          60.8241   88.8623    9.1756 C.ar    1  UNL1        0.0804
     10 C          59.9532   89.1135    7.9805 C.ar    1  UNL1        0.1178
     11 N          59.2285   87.8401    7.6593 N.ar    1  UNL1       -0.2223
     12 C          59.6516   86.8019    8.6558 C.ar    1  UNL1        0.1788
     13 N          60.6378   87.4337    9.5930 N.ar    1  UNL1       -0.3068
     14 C          61.6332   85.8856   11.5314 C.3     1  UNL1        0.0565
     15 O          63.1308   84.9228    9.6392 O.3     1  UNL1       -0.3844
     16 C          62.5370   84.8071   11.0119 C.3     1  UNL1        0.1127
     17 H          62.8315   85.7477    9.2260 H       1  UNL1        0.2103
     18 C          62.8471   83.6129   11.8650 C.3     1  UNL1        0.0272
     19 C          62.7297   82.2314   11.2925 C.3     1  UNL1        0.0049
     20 C          63.0398   81.0372   12.1456 C.3     1  UNL1        0.0293
     21 C          63.4673   81.2245   13.5711 C.3     1  UNL1        0.1105
     22 O          63.7773   80.0303   14.4242 O.3     1  UNL1       -0.3845
     23 C          63.5846   82.6060   14.1436 C.3     1  UNL1        0.0293
     24 C          63.2746   83.8002   13.2906 C.3     1  UNL1        0.0049
     25 H          64.0360   80.3250   15.3114 H       1  UNL1        0.2103
@<TRIPOS>BOND
     1    16    15    1
     2    16    14    1
     3     1    14    1
     4     1     2    1
     5     2     3   ar
     6     3     4    1
     7     3     5   ar
     8     5     6   ar
     9     6     7   ar
    10     7     8   ar
    11     8     9    1
    12     9    10   ar
    13    10    11   ar
    14    11    12   ar
    15    12    13   ar
    16    16    18    1
    17    18    19    1
    18    19    20    1
    19    20    21    1
    20    21    22    1
    21    21    23    1
    22    23    24    1
    23    13     1    1
    24    24    18    1
    25     8     2   ar
    26    13     9   ar
    27    15    17    1
    28    22    25    1
@<TRIPOS>MOLECULE
*****
 25 28 0 0 0
SMALL
GASTEIGER

@<TRIPOS>ATOM
      1 C          61.8300   88.7733   10.9849 C.3     1  UNL1        0.1140
      2 C          62.3303   87.4487   11.4802 C.ar    1  UNL1        0.0273
      3 C          63.2069   87.0765   12.6390 C.ar    1  UNL1        0.1379
      4 F          63.7457   88.1436   13.5449 F       1  UNL1       -0.2044
      5 C          63.5447   85.6370   12.8919 C.ar    1  UNL1        0.0294
      6 C          63.0058   84.5699   11.9859 C.ar    1  UNL1        0.0023
      7 C          62.1292   84.9421   10.8271 C.ar    1  UNL1        0.0014
      8 C          61.7914   86.3815   10.5742 C.ar    1  UNL1        0.0173
      9 C          60.9581   87.0465    9.5190 C.ar    1  UNL1        0.0804
     10 C          60.1100   86.7979    8.3070 C.ar    1  UNL1        0.1178
     11 N          59.6097   88.1224    7.8118 N.ar    1  UNL1       -0.2223
     12 C          60.1486   89.1896    8.7177 C.ar    1  UNL1        0.1788
     13 N          60.9819   88.5246    9.7729 N.ar    1  UNL1       -0.3068
     14 C          62.1258   90.1114   11.5946 C.3     1  UNL1        0.0565
     15 O          62.8502   91.4908    9.5156 O.3     1  UNL1       -0.3844
     16 C          63.0932   91.0428   10.9264 C.3     1  UNL1        0.1127
     17 H          62.0312   91.0894    9.1853 H       1  UNL1        0.2103
     18 C          64.3036   91.5261   11.6688 C.3     1  UNL1        0.0272
     19 C          64.4687   91.2041   13.1245 C.3     1  UNL1        0.0049
     20 C          65.6791   91.6875   13.8670 C.3     1  UNL1        0.0293
     21 C          66.7245   92.4928   13.1538 C.3     1  UNL1        0.1105
     22 O          67.9349   92.9761   13.8962 O.3     1  UNL1       -0.3845
     23 C          66.5594   92.8148   11.6980 C.3     1  UNL1        0.0293
     24 C          65.3490   92.3314   10.9555 C.3     1  UNL1        0.0049
     25 H          68.5057   93.4771   13.2928 H       1  UNL1        0.2103
@<TRIPOS>BOND
     1    16    15    1
     2    16    14    1
     3     1    14    1
     4     1     2    1
     5     2     3   ar
     6     3     4    1
     7     3     5   ar
     8     5     6   ar
     9     6     7   ar
    10     7     8   ar
    11     8     9    1
    12     9    10   ar
    13    10    11   ar
    14    11    12   ar
    15    12    13   ar
    16    16    18    1
    17    18    19    1
    18    19    20    1
    19    20    21    1
    20    21    22    1
    21    21    23    1
    22    23    24    1
    23    13     1    1
    24    24    18    1
    25     8     2   ar
    26    13     9   ar
    27    15    17    1
    28    22    25    1
@<TRIPOS>MOLECULE
*****
 25 28 0 0 0
SMALL
GASTEIGER

@<TRIPOS>ATOM
      1 C          63.3069   87.2895   12.7014 C.3     1  UNL1        0.1140
      2 C          63.4543   85.8369   13.0456 C.ar    1  UNL1        0.0273
      3 C          64.1627   85.1383   14.1681 C.ar    1  UNL1        0.1379
      4 F          64.8974   85.9369   15.2036 F       1  UNL1       -0.2044
      5 C          64.1362   83.6410   14.2551 C.ar    1  UNL1        0.0294
      6 C          63.4014   82.8425   13.2196 C.ar    1  UNL1        0.0023
      7 C          62.6930   83.5411   12.0971 C.ar    1  UNL1        0.0014
      8 C          62.7194   85.0383   12.0100 C.ar    1  UNL1        0.0173
      9 C          62.1179   85.9973   11.0259 C.ar    1  UNL1        0.0804
     10 C          61.2920   86.0963    9.7777 C.ar    1  UNL1        0.1178
     11 N          61.1446   87.5489    9.4335 N.ar    1  UNL1       -0.2223
     12 C          61.8794   88.3475   10.4690 C.ar    1  UNL1        0.1788
     13 N          62.4809   87.3886   11.4532 N.ar    1  UNL1       -0.3068
     14 C          63.8840   88.4408   13.4704 C.3     1  UNL1        0.0565
     15 O          61.8891   90.1023   13.5686 O.3     1  UNL1       -0.3844
     16 C          63.3338   89.8228   13.2773 C.3     1  UNL1        0.1127
     17 H          61.4565   89.2880   13.8698 H       1  UNL1        0.2103
     18 C          64.2282   90.9253   12.7930 C.3     1  UNL1        0.0272
     19 C          65.2633   91.5082   13.7088 C.3     1  UNL1        0.0049
     20 C          66.1577   92.6107   13.2245 C.3     1  UNL1        0.0293
     21 C          66.0170   93.1303   11.8245 C.3     1  UNL1        0.1105
     22 O          66.9113   94.2328   11.3402 O.3     1  UNL1       -0.3845
     23 C          64.9817   92.5474   10.9086 C.3     1  UNL1        0.0293
     24 C          64.0874   91.4449   11.3929 C.3     1  UNL1        0.0049
     25 H          66.6902   94.4482   10.4206 H       1  UNL1        0.2103
@<TRIPOS>BOND
     1    16    15    1
     2    16    14    1
     3     1    14    1
     4     1     2    1
     5     2     3   ar
     6     3     4    1
     7     3     5   ar
     8     5     6   ar
     9     6     7   ar
    10     7     8   ar
    11     8     9    1
    12     9    10   ar
    13    10    11   ar
    14    11    12   ar
    15    12    13   ar
    16    16    18    1
    17    18    19    1
    18    19    20    1
    19    20    21    1
    20    21    22    1
    21    21    23    1
    22    23    24    1
    23    13     1    1
    24    24    18    1
    25     8     2   ar
    26    13     9   ar
    27    15    17    1
    28    22    25    1
@<TRIPOS>MOLECULE
*****
 25 28 0 0 0
SMALL
GASTEIGER

@<TRIPOS>ATOM
      1 C          61.6060   88.2966   11.0122 C.3     1  UNL1        0.1140
      2 C          60.8304   88.0152    9.7594 C.ar    1  UNL1        0.0273
      3 C          60.0058   88.8977    8.8698 C.ar    1  UNL1        0.1379
      4 F          59.8542   90.3548    9.1913 F       1  UNL1       -0.2044
      5 C          59.3328   88.3227    7.6587 C.ar    1  UNL1        0.0294
      6 C          59.4845   86.8655    7.3373 C.ar    1  UNL1        0.0023
      7 C          60.3092   85.9831    8.2269 C.ar    1  UNL1        0.0014
      8 C          60.9821   86.5579    9.4379 C.ar    1  UNL1        0.0173
      9 C          61.8513   85.9387   10.4920 C.ar    1  UNL1        0.0804
     10 C          62.4822   84.6553   10.9447 C.ar    1  UNL1        0.1178
     11 N          63.2577   84.9368   12.1975 N.ar    1  UNL1       -0.2223
     12 C          63.1060   86.3941   12.5190 C.ar    1  UNL1        0.1788
     13 N          62.2369   87.0133   11.4649 N.ar    1  UNL1       -0.3068
     14 C          61.7289   89.6277   11.6927 C.3     1  UNL1        0.0565
     15 O          62.7672   91.2032    9.9067 O.3     1  UNL1       -0.3844
     16 C          62.8028   90.5877   11.2742 C.3     1  UNL1        0.1127
     17 H          61.9910   90.8767    9.4252 H       1  UNL1        0.2103
     18 C          63.9123   90.9322   12.2230 C.3     1  UNL1        0.0272
     19 C          64.8788   92.0270   11.8810 C.3     1  UNL1        0.0049
     20 C          65.9883   92.3715   12.8299 C.3     1  UNL1        0.0293
     21 C          66.1312   91.6212   14.1208 C.3     1  UNL1        0.1105
     22 O          67.2407   91.9657   15.0697 O.3     1  UNL1       -0.3845
     23 C          65.1646   90.5263   14.4629 C.3     1  UNL1        0.0293
     24 C          64.0551   90.1818   13.5140 C.3     1  UNL1        0.0049
     25 H          67.1899   91.3905   15.8490 H       1  UNL1        0.2103
@<TRIPOS>BOND
     1    16    15    1
     2    16    14    1
     3     1    14    1
     4     1     2    1
     5     2     3   ar
     6     3     4    1
     7     3     5   ar
     8     5     6   ar
     9     6     7   ar
    10     7     8   ar
    11     8     9    1
    12     9    10   ar
    13    10    11   ar
    14    11    12   ar
    15    12    13   ar
    16    16    18    1
    17    18    19    1
    18    19    20    1
    19    20    21    1
    20    21    22    1
    21    21    23    1
    22    23    24    1
    23    13     1    1
    24    24    18    1
    25     8     2   ar
    26    13     9   ar
    27    15    17    1
    28    22    25    1
@<TRIPOS>MOLECULE
*****
 25 28 0 0 0
SMALL
GASTEIGER

@<TRIPOS>ATOM
      1 C          63.1822   86.7244   12.6033 C.3     1  UNL1        0.1140
      2 C          63.4568   88.1832   12.8189 C.ar    1  UNL1        0.0273
      3 C          64.2408   88.9124   13.8695 C.ar    1  UNL1        0.1379
      4 F          64.9241   88.1456   14.9626 F       1  UNL1       -0.2044
      5 C          64.3414   90.4084   13.8269 C.ar    1  UNL1        0.0294
      6 C          63.6581   91.1752   12.7337 C.ar    1  UNL1        0.0023
      7 C          62.8741   90.4460   11.6831 C.ar    1  UNL1        0.0014
      8 C          62.7735   88.9500   11.7257 C.ar    1  UNL1        0.0173
      9 C          62.0766   87.9652   10.8344 C.ar    1  UNL1        0.0804
     10 C          61.2236   87.8304    9.6080 C.ar    1  UNL1        0.1178
     11 N          60.9490   86.3716    9.3923 N.ar    1  UNL1       -0.2223
     12 C          61.6323   85.6048   10.4855 C.ar    1  UNL1        0.1788
     13 N          62.3292   86.5896   11.3768 N.ar    1  UNL1       -0.3068
     14 C          63.6743   85.5981   13.4631 C.3     1  UNL1        0.0565
     15 O          61.7626   84.8770   15.0680 O.3     1  UNL1       -0.3844
     16 C          62.7147   84.5551   13.9544 C.3     1  UNL1        0.1127
     17 H          61.8977   85.7940   15.3540 H       1  UNL1        0.2103
     18 C          62.7072   83.1902   13.3323 C.3     1  UNL1        0.0272
     19 C          62.1297   82.0270   14.0828 C.3     1  UNL1        0.0049
     20 C          62.1223   80.6621   13.4607 C.3     1  UNL1        0.0293
     21 C          62.6923   80.4605   12.0880 C.3     1  UNL1        0.1105
     22 O          62.6848   79.0956   11.4659 O.3     1  UNL1       -0.3845
     23 C          63.2698   81.6237   11.3374 C.3     1  UNL1        0.0293
     24 C          63.2773   82.9886   11.9595 C.3     1  UNL1        0.0049
     25 H          63.0871   79.1399   10.5843 H       1  UNL1        0.2103
@<TRIPOS>BOND
     1    16    15    1
     2    16    14    1
     3     1    14    1
     4     1     2    1
     5     2     3   ar
     6     3     4    1
     7     3     5   ar
     8     5     6   ar
     9     6     7   ar
    10     7     8   ar
    11     8     9    1
    12     9    10   ar
    13    10    11   ar
    14    11    12   ar
    15    12    13   ar
    16    16    18    1
    17    18    19    1
    18    19    20    1
    19    20    21    1
    20    21    22    1
    21    21    23    1
    22    23    24    1
    23    13     1    1
    24    24    18    1
    25     8     2   ar
    26    13     9   ar
    27    15    17    1
    28    22    25    1
@<TRIPOS>MOLECULE
*****
 25 28 0 0 0
SMALL
GASTEIGER

@<TRIPOS>ATOM
      1 C          63.2152   88.4209   12.4031 C.3     1  UNL1        0.1140
      2 C          62.4076   87.9232   11.2410 C.ar    1  UNL1        0.0273
      3 C          61.7390   88.6376   10.1041 C.ar    1  UNL1        0.1379
      4 F          61.8245   90.1317   10.0031 F       1  UNL1       -0.2044
      5 C          60.9849   87.8578    9.0681 C.ar    1  UNL1        0.0294
      6 C          60.8995   86.3637    9.1691 C.ar    1  UNL1        0.0023
      7 C          61.5681   85.6493   10.3060 C.ar    1  UNL1        0.0014
      8 C          62.3221   86.4290   11.3420 C.ar    1  UNL1        0.0173
      9 C          63.0769   86.0032   12.5664 C.ar    1  UNL1        0.0804
     10 C          63.4905   84.8166   13.3854 C.ar    1  UNL1        0.1178
     11 N          64.2981   85.3143   14.5474 N.ar    1  UNL1       -0.2223
     12 C          64.3836   86.8084   14.4465 C.ar    1  UNL1        0.1788
     13 N          63.6288   87.2342   13.2221 N.ar    1  UNL1       -0.3068
     14 C          63.5503   89.8536   12.6947 C.3     1  UNL1        0.0565
     15 O          62.6440   89.9190   15.1288 O.3     1  UNL1       -0.3844
     16 C          63.6738   90.3208   14.1147 C.3     1  UNL1        0.1127
     17 H          61.9727   89.3620   14.7046 H       1  UNL1        0.2103
     18 C          64.8269   91.1899   14.5207 C.3     1  UNL1        0.0272
     19 C          65.9229   91.4879   13.5410 C.3     1  UNL1        0.0049
     20 C          67.0761   92.3570   13.9470 C.3     1  UNL1        0.0293
     21 C          67.1333   92.9282   15.3328 C.3     1  UNL1        0.1105
     22 O          68.2864   93.7973   15.7388 O.3     1  UNL1       -0.3845
     23 C          66.0372   92.6302   16.3126 C.3     1  UNL1        0.0293
     24 C          64.8841   91.7611   15.9066 C.3     1  UNL1        0.0049
     25 H          68.1693   94.0808   16.6590 H       1  UNL1        0.2103
@<TRIPOS>BOND
     1    16    15    1
     2    16    14    1
     3     1    14    1
     4     1     2    1
     5     2     3   ar
     6     3     4    1
     7     3     5   ar
     8     5     6   ar
     9     6     7   ar
    10     7     8   ar
    11     8     9    1
    12     9    10   ar
    13    10    11   ar
    14    11    12   ar
    15    12    13   ar
    16    16    18    1
    17    18    19    1
    18    19    20    1
    19    20    21    1
    20    21    22    1
    21    21    23    1
    22    23    24    1
    23    13     1    1
    24    24    18    1
    25     8     2   ar
    26    13     9   ar
    27    15    17    1
    28    22    25    1
@<TRIPOS>MOLECULE
*****
 25 28 0 0 0
SMALL
GASTEIGER

@<TRIPOS>ATOM
      1 C          63.1512   88.4913   12.0799 C.3     1  UNL1        0.1140
      2 C          63.8105   89.6657   12.7406 C.ar    1  UNL1        0.0273
      3 C          63.9288   91.1065   12.3404 C.ar    1  UNL1        0.1379
      4 F          63.3120   91.5819   11.0585 F       1  UNL1       -0.2044
      5 C          64.6640   92.0718   13.2224 C.ar    1  UNL1        0.0294
      6 C          65.2807   91.5962   14.5043 C.ar    1  UNL1        0.0023
      7 C          65.1624   90.1554   14.9044 C.ar    1  UNL1        0.0014
      8 C          64.4273   89.1901   14.0226 C.ar    1  UNL1        0.0173
      9 C          64.1492   87.7220   14.1542 C.ar    1  UNL1        0.0804
     10 C          64.3586   86.5208   15.0278 C.ar    1  UNL1        0.1178
     11 N          63.6993   85.3466   14.3671 N.ar    1  UNL1       -0.2223
     12 C          63.0825   85.8220   13.0851 C.ar    1  UNL1        0.1788
     13 N          63.3606   87.2902   12.9535 N.ar    1  UNL1       -0.3068
     14 C          62.4123   88.5143   10.7747 C.3     1  UNL1        0.0565
     15 O          60.1629   87.4400   11.5071 O.3     1  UNL1       -0.3844
     16 C          61.2948   87.5445   10.5283 C.3     1  UNL1        0.1127
     17 H          60.3073   88.0634   12.2361 H       1  UNL1        0.2103
     18 C          61.3091   86.6792    9.3031 C.3     1  UNL1        0.0272
     19 C          62.5600   85.9473    8.9164 C.3     1  UNL1        0.0049
     20 C          62.5743   85.0820    7.6912 C.3     1  UNL1        0.0293
     21 C          61.3377   84.9486    6.8528 C.3     1  UNL1        0.1105
     22 O          61.3520   84.0833    5.6276 O.3     1  UNL1       -0.3845
     23 C          60.0867   85.6804    7.2395 C.3     1  UNL1        0.0293
     24 C          60.0724   86.5458    8.4647 C.3     1  UNL1        0.0049
     25 H          60.4795   84.1074    5.2046 H       1  UNL1        0.2103
@<TRIPOS>BOND
     1    16    15    1
     2    16    14    1
     3     1    14    1
     4     1     2    1
     5     2     3   ar
     6     3     4    1
     7     3     5   ar
     8     5     6   ar
     9     6     7   ar
    10     7     8   ar
    11     8     9    1
    12     9    10   ar
    13    10    11   ar
    14    11    12   ar
    15    12    13   ar
    16    16    18    1
    17    18    19    1
    18    19    20    1
    19    20    21    1
    20    21    22    1
    21    21    23    1
    22    23    24    1
    23    13     1    1
    24    24    18    1
    25     8     2   ar
    26    13     9   ar
    27    15    17    1
    28    22    25    1
@<TRIPOS>MOLECULE
*****
 25 28 0 0 0
SMALL
GASTEIGER

@<TRIPOS>ATOM
      1 C          63.6477   86.9201   13.1222 C.3     1  UNL1        0.1140
      2 C          62.8440   86.8925   11.8559 C.ar    1  UNL1        0.0273
      3 C          62.3431   85.7600   11.0095 C.ar    1  UNL1        0.1379
      4 F          62.6385   84.3428   11.4019 F       1  UNL1       -0.2044
      5 C          61.5467   86.0448    9.7706 C.ar    1  UNL1        0.0294
      6 C          61.2513   87.4621    9.3783 C.ar    1  UNL1        0.0023
      7 C          61.7523   88.5946   10.2247 C.ar    1  UNL1        0.0014
      8 C          62.5486   88.3099   11.4635 C.ar    1  UNL1        0.0173
      9 C          63.1697   89.2134   12.4872 C.ar    1  UNL1        0.0804
     10 C          63.3710   90.6477   12.8774 C.ar    1  UNL1        0.1178
     11 N          64.1746   90.6752   14.1436 N.ar    1  UNL1       -0.2223
     12 C          64.4700   89.2579   14.5360 C.ar    1  UNL1        0.1788
     13 N          63.8490   88.3544   13.5123 N.ar    1  UNL1       -0.3068
     14 C          64.1601   85.7234   13.8674 C.3     1  UNL1        0.0565
     15 O          62.4827   85.4420   15.8314 O.3     1  UNL1       -0.3844
     16 C          63.2123   84.8670   14.6536 C.3     1  UNL1        0.1127
     17 H          62.7360   86.3713   15.9464 H       1  UNL1        0.2103
     18 C          62.9939   83.4356   14.2620 C.3     1  UNL1        0.0272
     19 C          64.0604   82.6915   13.5144 C.3     1  UNL1        0.0049
     20 C          63.8420   81.2601   13.1228 C.3     1  UNL1        0.0293
     21 C          62.5572   80.5727   13.4788 C.3     1  UNL1        0.1105
     22 O          62.3388   79.1413   13.0872 O.3     1  UNL1       -0.3845
     23 C          61.4906   81.3169   14.2264 C.3     1  UNL1        0.0293
     24 C          61.7090   82.7483   14.6180 C.3     1  UNL1        0.0049
     25 H          61.4641   78.8528   13.3912 H       1  UNL1        0.2103
@<TRIPOS>BOND
     1    16    15    1
     2    16    14    1
     3     1    14    1
     4     1     2    1
     5     2     3   ar
     6     3     4    1
     7     3     5   ar
     8     5     6   ar
     9     6     7   ar
    10     7     8   ar
    11     8     9    1
    12     9    10   ar
    13    10    11   ar
    14    11    12   ar
    15    12    13   ar
    16    16    18    1
    17    18    19    1
    18    19    20    1
    19    20    21    1
    20    21    22    1
    21    21    23    1
    22    23    24    1
    23    13     1    1
    24    24    18    1
    25     8     2   ar
    26    13     9   ar
    27    15    17    1
    28    22    25    1
@<TRIPOS>MOLECULE
*****
 25 28 0 0 0
SMALL
GASTEIGER

@<TRIPOS>ATOM
      1 C          62.1914   87.0247   10.4994 C.3     1  UNL1        0.1140
      2 C          61.1927   87.3179    9.4192 C.ar    1  UNL1        0.0273
      3 C          60.5367   86.4413    8.3939 C.ar    1  UNL1        0.1379
      4 F          60.8610   84.9778    8.3405 F       1  UNL1       -0.2044
      5 C          59.5564   87.0283    7.4220 C.ar    1  UNL1        0.0294
      6 C          59.2322   88.4918    7.4755 C.ar    1  UNL1        0.0023
      7 C          59.8882   89.3685    8.5007 C.ar    1  UNL1        0.0014
      8 C          60.8685   88.7815    9.4726 C.ar    1  UNL1        0.0173
      9 C          61.6667   89.3928   10.5857 C.ar    1  UNL1        0.0804
     10 C          61.9597   90.6752   11.3067 C.ar    1  UNL1        0.1178
     11 N          62.9583   90.3819   12.3868 N.ar    1  UNL1       -0.2223
     12 C          63.2826   88.9184   12.3334 C.ar    1  UNL1        0.1788
     13 N          62.4843   88.3071   11.2203 N.ar    1  UNL1       -0.3068
     14 C          62.7917   85.6845   10.8049 C.3     1  UNL1        0.0565
     15 O          63.1940   86.2081   13.3177 O.3     1  UNL1       -0.3844
     16 C          62.9052   85.2200   12.2266 C.3     1  UNL1        0.1127
     17 H          63.2780   87.0959   12.9360 H       1  UNL1        0.2103
     18 C          62.7300   83.7675   12.5574 C.3     1  UNL1        0.0272
     19 C          62.3103   83.3580   13.9380 C.3     1  UNL1        0.0049
     20 C          62.1350   81.9055   14.2688 C.3     1  UNL1        0.0293
     21 C          62.3794   80.8624   13.2189 C.3     1  UNL1        0.1105
     22 O          62.2041   79.4099   13.5497 O.3     1  UNL1       -0.3845
     23 C          62.7991   81.2718   11.8382 C.3     1  UNL1        0.0293
     24 C          62.9744   82.7244   11.5075 C.3     1  UNL1        0.0049
     25 H          62.4001   78.8737   12.7655 H       1  UNL1        0.2103
@<TRIPOS>BOND
     1    16    15    1
     2    16    14    1
     3     1    14    1
     4     1     2    1
     5     2     3   ar
     6     3     4    1
     7     3     5   ar
     8     5     6   ar
     9     6     7   ar
    10     7     8   ar
    11     8     9    1
    12     9    10   ar
    13    10    11   ar
    14    11    12   ar
    15    12    13   ar
    16    16    18    1
    17    18    19    1
    18    19    20    1
    19    20    21    1
    20    21    22    1
    21    21    23    1
    22    23    24    1
    23    13     1    1
    24    24    18    1
    25     8     2   ar
    26    13     9   ar
    27    15    17    1
    28    22    25    1
