@<TRIPOS>MOLECULE
*****
 38 39 0 0 0
SMALL
GASTEIGER

@<TRIPOS>ATOM
      1 C          62.6035   88.4242   11.6804 C.2     1  UNL1        0.2483
      2 O          62.0145   87.9107   10.4000 O.2     1  UNL1       -0.2726
      3 N          63.1403   87.4618   12.6980 N.am    1  UNL1       -0.2823
      4 H          63.5269   87.7988   13.5384 H       1  UNL1        0.1549
      5 C          63.0881   85.9858   12.4352 C.ar    1  UNL1        0.0503
      6 C          62.4005   85.4665   11.2074 C.ar    1  UNL1        0.0144
      7 C          62.3483   83.9906   10.9446 C.ar    1  UNL1       -0.0002
      8 C          62.9836   83.0341   11.9097 C.ar    1  UNL1        0.0182
      9 C          63.6712   83.5534   13.1376 C.ar    1  UNL1       -0.0002
     10 C          63.7234   85.0293   13.4003 C.ar    1  UNL1        0.0144
     11 C          62.9314   81.5582   11.6470 C.3     1  UNL1        0.2827
     12 O          63.5529   81.7761   10.2993 O.3     1  UNL1       -0.3692
     13 H          63.6550   80.9233    9.8486 H       1  UNL1        0.2112
     14 C          62.8792   80.0823   11.3842 C.3     1  UNL1        0.4311
     15 F          62.8270   78.6064   11.1215 F       1  UNL1       -0.1669
     16 F          63.0077   80.3399    9.9121 F       1  UNL1       -0.1669
     17 F          62.8002   79.8252   12.2282 F       1  UNL1       -0.1669
     18 C          62.3100   81.3403   12.9946 C.3     1  UNL1        0.4311
     19 F          61.6886   81.1223   14.3424 F       1  UNL1       -0.1669
     20 F          61.4754   81.5203   12.7591 F       1  UNL1       -0.1669
     21 F          63.4674   80.9635   13.8714 F       1  UNL1       -0.1669
     22 C          62.6558   89.9000   11.9431 C.3     1  UNL1        0.1719
     23 C          66.3066   91.7194   13.8434 C.ar    1  UNL1        0.1056
     24 C          65.5629   90.6227   14.5463 C.ar    1  UNL1        0.0181
     25 C          64.3459   90.0163   13.9128 C.ar    1  UNL1       -0.0009
     26 C          63.8727   90.5065   12.5765 C.ar    1  UNL1        0.0044
     27 C          64.6165   91.6032   11.8737 C.ar    1  UNL1       -0.0009
     28 C          65.8334   92.2096   12.5071 C.ar    1  UNL1        0.0181
     29 S          67.5236   92.3259   14.4768 S.O2    1  UNL1        0.0087
     30 O          68.3042   92.0705   13.2216 O.2     1  UNL1       -0.1686
     31 O          66.7430   92.5813   15.7320 O.2     1  UNL1       -0.1686
     32 C          68.5960   94.0795   16.0657 C.3     1  UNL1        0.0276
     33 C          68.7406   92.9323   15.1102 C.3     1  UNL1        0.1560
     34 N          61.4910   90.7694   11.5724 N.am    1  UNL1       -0.2950
     35 C          60.0941   90.3313   11.8991 C.2     1  UNL1        0.2235
     36 C          58.9293   91.2008   11.5284 C.3     1  UNL1        0.0946
     37 O          59.8620   89.0237   12.5965 O.2     1  UNL1       -0.2751
     38 H          61.6434   91.6277   11.1147 H       1  UNL1        0.1501
@<TRIPOS>BOND
     1    32    33    1
     2    33    29    1
     3    29    30    2
     4    29    31    2
     5    29    23    1
     6    23    24   ar
     7    24    25   ar
     8    25    26   ar
     9    26    22    1
    10    22    34    1
    11    34    35   am
    12    35    36    1
    13    35    37    2
    14    22     1    1
    15     1     2    2
    16     1     3   am
    17     3     5    1
    18     5     6   ar
    19     6     7   ar
    20     7     8   ar
    21     8    11    1
    22    11    12    1
    23    11    14    1
    24    14    15    1
    25    14    16    1
    26    14    17    1
    27    11    18    1
    28    18    19    1
    29    18    20    1
    30    18    21    1
    31     8     9   ar
    32     9    10   ar
    33    26    27   ar
    34    27    28   ar
    35    28    23   ar
    36    10     5   ar
    37    34    38    1
    38     3     4    1
    39    12    13    1
@<TRIPOS>MOLECULE
*****
 38 39 0 0 0
SMALL
GASTEIGER

@<TRIPOS>ATOM
      1 C          63.8659   89.0779   13.6139 C.2     1  UNL1        0.2483
      2 O          63.0958   88.6629   12.3954 O.2     1  UNL1       -0.2726
      3 N          64.3287   88.0436   14.5969 N.am    1  UNL1       -0.2823
      4 H          64.8341   88.3159   15.3966 H       1  UNL1        0.1549
      5 C          64.0213   86.5944   14.3612 C.ar    1  UNL1        0.0503
      6 C          64.3683   85.5748   15.4052 C.ar    1  UNL1        0.0144
      7 C          64.0609   84.1256   15.1696 C.ar    1  UNL1       -0.0002
      8 C          63.4066   83.6961   13.8900 C.ar    1  UNL1        0.0182
      9 C          63.0597   84.7158   12.8459 C.ar    1  UNL1       -0.0002
     10 C          63.3670   86.1649   13.0816 C.ar    1  UNL1        0.0144
     11 C          63.0993   82.2470   13.6543 C.3     1  UNL1        0.2827
     12 O          62.3188   82.2044   14.9345 O.3     1  UNL1       -0.3692
     13 H          61.9631   81.3117   15.0668 H       1  UNL1        0.2112
     14 C          62.7919   80.7979   13.4187 C.3     1  UNL1        0.4311
     15 F          62.4846   79.3487   13.1830 F       1  UNL1       -0.1669
     16 F          61.3290   81.1206   13.3425 F       1  UNL1       -0.1669
     17 F          63.6272   80.5045   13.4463 F       1  UNL1       -0.1669
     18 C          63.8798   82.2897   12.3741 C.3     1  UNL1        0.4311
     19 F          64.6603   82.3323   11.0938 F       1  UNL1       -0.1669
     20 F          64.6775   82.4142   12.7381 F       1  UNL1       -0.1669
     21 F          62.8408   82.0988   11.3090 F       1  UNL1       -0.1669
     22 C          64.1732   90.5270   13.8495 C.3     1  UNL1        0.1719
     23 C          66.3197   92.9135   10.6956 C.ar    1  UNL1        0.1056
     24 C          67.0564   92.4523   11.9181 C.ar    1  UNL1        0.0181
     25 C          66.3409   91.6568   12.9694 C.ar    1  UNL1       -0.0009
     26 C          64.8887   91.3225   12.7982 C.ar    1  UNL1        0.0044
     27 C          64.1520   91.7836   11.5757 C.ar    1  UNL1       -0.0009
     28 C          64.8675   92.5791   10.5244 C.ar    1  UNL1        0.0181
     29 S          67.0352   93.7090    9.6443 S.O2    1  UNL1        0.0087
     30 O          66.1273   94.8736    9.9077 O.2     1  UNL1       -0.1686
     31 O          67.9430   92.5443    9.3808 O.2     1  UNL1       -0.1686
     32 C          67.4724   95.9707    8.4429 C.3     1  UNL1        0.0276
     33 C          67.7507   94.5045    8.5929 C.3     1  UNL1        0.1560
     34 N          63.7650   91.1806   15.1364 N.am    1  UNL1       -0.2950
     35 C          64.7996   91.8217   16.0131 C.2     1  UNL1        0.2235
     36 C          64.3914   92.4754   17.3001 C.3     1  UNL1        0.0946
     37 O          66.2424   91.8091   15.6030 O.2     1  UNL1       -0.2751
     38 H          62.8181   91.1889   15.4056 H       1  UNL1        0.1501
@<TRIPOS>BOND
     1    32    33    1
     2    33    29    1
     3    29    30    2
     4    29    31    2
     5    29    23    1
     6    23    24   ar
     7    24    25   ar
     8    25    26   ar
     9    26    22    1
    10    22    34    1
    11    34    35   am
    12    35    36    1
    13    35    37    2
    14    22     1    1
    15     1     2    2
    16     1     3   am
    17     3     5    1
    18     5     6   ar
    19     6     7   ar
    20     7     8   ar
    21     8    11    1
    22    11    12    1
    23    11    14    1
    24    14    15    1
    25    14    16    1
    26    14    17    1
    27    11    18    1
    28    18    19    1
    29    18    20    1
    30    18    21    1
    31     8     9   ar
    32     9    10   ar
    33    26    27   ar
    34    27    28   ar
    35    28    23   ar
    36    10     5   ar
    37    34    38    1
    38     3     4    1
    39    12    13    1
@<TRIPOS>MOLECULE
*****
 38 39 0 0 0
SMALL
GASTEIGER

@<TRIPOS>ATOM
      1 C          61.9068   88.0866   11.5638 C.2     1  UNL1        0.2483
      2 O          60.5442   87.4794   11.7205 O.2     1  UNL1       -0.2726
      3 N          63.1310   87.2559   11.8111 N.am    1  UNL1       -0.2823
      4 H          64.0254   87.6544   11.7083 H       1  UNL1        0.1549
      5 C          62.9926   85.8179   12.2151 C.ar    1  UNL1        0.0503
      6 C          63.4464   85.3736   13.5740 C.ar    1  UNL1        0.0144
      7 C          63.3080   83.9356   13.9779 C.ar    1  UNL1       -0.0002
      8 C          62.7157   82.9420   13.0230 C.ar    1  UNL1        0.0182
      9 C          62.2619   83.3864   11.6640 C.ar    1  UNL1       -0.0002
     10 C          62.4003   84.8243   11.2601 C.ar    1  UNL1        0.0144
     11 C          62.5772   81.5041   13.4268 C.3     1  UNL1        0.2827
     12 O          62.1407   81.9309   14.7969 O.3     1  UNL1       -0.3692
     13 H          61.9622   81.1463   15.3385 H       1  UNL1        0.2112
     14 C          62.4388   80.0662   13.8307 C.3     1  UNL1        0.4311
     15 F          62.3004   78.6282   14.2347 F       1  UNL1       -0.1669
     16 F          60.9466   80.2171   13.8564 F       1  UNL1       -0.1669
     17 F          63.3034   79.8742   13.8448 F       1  UNL1       -0.1669
     18 C          63.0138   81.0772   12.0568 C.3     1  UNL1        0.4311
     19 F          63.4504   80.6503   10.6866 F       1  UNL1       -0.1669
     20 F          62.2541   80.6901   11.8171 F       1  UNL1       -0.1669
     21 F          64.4293   81.5640   11.9587 F       1  UNL1       -0.1669
     22 C          62.0452   89.5245   11.1599 C.3     1  UNL1        0.1719
     23 C          65.1558   92.1219   13.1164 C.ar    1  UNL1        0.1056
     24 C          64.9080   92.2306   11.6410 C.ar    1  UNL1        0.0181
     25 C          63.8711   91.3648   10.9889 C.ar    1  UNL1       -0.0009
     26 C          63.0821   90.3903   11.8121 C.ar    1  UNL1        0.0044
     27 C          63.3298   90.2817   13.2874 C.ar    1  UNL1       -0.0009
     28 C          64.3667   91.1475   13.9396 C.ar    1  UNL1        0.0181
     29 S          66.1926   92.9877   13.7686 S.O2    1  UNL1        0.0087
     30 O          65.5070   92.8126   15.0912 O.2     1  UNL1       -0.1686
     31 O          66.8782   93.1629   12.4460 O.2     1  UNL1       -0.1686
     32 C          68.1313   93.2801   15.4732 C.3     1  UNL1        0.0276
     33 C          67.2295   93.8536   14.4207 C.3     1  UNL1        0.1560
     34 N          61.1468   90.0966   10.1038 N.am    1  UNL1       -0.2950
     35 C          60.6965   89.2401    8.9576 C.2     1  UNL1        0.2235
     36 C          59.7980   89.8123    7.9015 C.3     1  UNL1        0.0946
     37 O          61.1448   87.8116    8.8675 O.2     1  UNL1       -0.2751
     38 H          60.8525   91.0343   10.1629 H       1  UNL1        0.1501
@<TRIPOS>BOND
     1    32    33    1
     2    33    29    1
     3    29    30    2
     4    29    31    2
     5    29    23    1
     6    23    24   ar
     7    24    25   ar
     8    25    26   ar
     9    26    22    1
    10    22    34    1
    11    34    35   am
    12    35    36    1
    13    35    37    2
    14    22     1    1
    15     1     2    2
    16     1     3   am
    17     3     5    1
    18     5     6   ar
    19     6     7   ar
    20     7     8   ar
    21     8    11    1
    22    11    12    1
    23    11    14    1
    24    14    15    1
    25    14    16    1
    26    14    17    1
    27    11    18    1
    28    18    19    1
    29    18    20    1
    30    18    21    1
    31     8     9   ar
    32     9    10   ar
    33    26    27   ar
    34    27    28   ar
    35    28    23   ar
    36    10     5   ar
    37    34    38    1
    38     3     4    1
    39    12    13    1
@<TRIPOS>MOLECULE
*****
 38 39 0 0 0
SMALL
GASTEIGER

@<TRIPOS>ATOM
      1 C          62.3629   88.3208   12.1410 C.2     1  UNL1        0.2483
      2 O          61.2205   87.6329   11.4541 O.2     1  UNL1       -0.2726
      3 N          63.3634   87.5181   12.9187 N.am    1  UNL1       -0.2823
      4 H          64.1132   87.9696   13.3695 H       1  UNL1        0.1549
      5 C          63.2214   86.0276   13.0094 C.ar    1  UNL1        0.0503
      6 C          63.7081   85.3006   14.2279 C.ar    1  UNL1        0.0144
      7 C          63.5662   83.8101   14.3186 C.ar    1  UNL1       -0.0002
      8 C          62.9376   83.0465   13.1908 C.ar    1  UNL1        0.0182
      9 C          62.4509   83.7735   11.9723 C.ar    1  UNL1       -0.0002
     10 C          62.5929   85.2640   11.8816 C.ar    1  UNL1        0.0144
     11 C          62.7956   81.5560   13.2815 C.3     1  UNL1        0.2827
     12 O          62.3760   81.6833   14.7159 O.3     1  UNL1       -0.3692
     13 H          62.1990   80.8020   15.0804 H       1  UNL1        0.2112
     14 C          62.6537   80.0656   13.3722 C.3     1  UNL1        0.4311
     15 F          62.5118   78.5750   13.4628 F       1  UNL1       -0.1669
     16 F          61.1772   80.2193   13.5874 F       1  UNL1       -0.1669
     17 F          63.5089   79.8682   13.2526 F       1  UNL1       -0.1669
     18 C          63.2152   81.4288   11.8470 C.3     1  UNL1        0.4311
     19 F          63.6349   81.3016   10.4125 F       1  UNL1       -0.1669
     20 F          62.4420   81.1308   11.5343 F       1  UNL1       -0.1669
     21 F          64.6470   81.8762   11.8466 F       1  UNL1       -0.1669
     22 C          62.5048   89.8113   12.0502 C.3     1  UNL1        0.1719
     23 C          66.1854   91.8244   13.6783 C.ar    1  UNL1        0.1056
     24 C          65.4956   90.7607   14.4800 C.ar    1  UNL1        0.0181
     25 C          64.2688   90.0897   13.9373 C.ar    1  UNL1       -0.0009
     26 C          63.7317   90.4823   12.5929 C.ar    1  UNL1        0.0044
     27 C          64.4214   91.5460   11.7913 C.ar    1  UNL1       -0.0009
     28 C          65.6483   92.2171   12.3340 C.ar    1  UNL1        0.0181
     29 S          67.4122   92.4955   14.2210 S.O2    1  UNL1        0.0087
     30 O          67.2418   93.6086   13.2301 O.2     1  UNL1       -0.1686
     31 O          67.5827   91.3824   15.2119 O.2     1  UNL1       -0.1686
     32 C          68.5956   93.8387   16.1039 C.3     1  UNL1        0.0276
     33 C          68.6391   93.1665   14.7637 C.3     1  UNL1        0.1560
     34 N          61.4198   90.6307   11.4168 N.am    1  UNL1       -0.2950
     35 C          60.0022   90.4895   11.8863 C.2     1  UNL1        0.2235
     36 C          58.9172   91.3091   11.2528 C.3     1  UNL1        0.0946
     37 O          59.6696   89.5289   12.9892 O.2     1  UNL1       -0.2751
     38 H          61.6382   91.2612   10.6929 H       1  UNL1        0.1501
@<TRIPOS>BOND
     1    32    33    1
     2    33    29    1
     3    29    30    2
     4    29    31    2
     5    29    23    1
     6    23    24   ar
     7    24    25   ar
     8    25    26   ar
     9    26    22    1
    10    22    34    1
    11    34    35   am
    12    35    36    1
    13    35    37    2
    14    22     1    1
    15     1     2    2
    16     1     3   am
    17     3     5    1
    18     5     6   ar
    19     6     7   ar
    20     7     8   ar
    21     8    11    1
    22    11    12    1
    23    11    14    1
    24    14    15    1
    25    14    16    1
    26    14    17    1
    27    11    18    1
    28    18    19    1
    29    18    20    1
    30    18    21    1
    31     8     9   ar
    32     9    10   ar
    33    26    27   ar
    34    27    28   ar
    35    28    23   ar
    36    10     5   ar
    37    34    38    1
    38     3     4    1
    39    12    13    1
@<TRIPOS>MOLECULE
*****
 38 39 0 0 0
SMALL
GASTEIGER

@<TRIPOS>ATOM
      1 C          64.2181   88.1098   14.3974 C.2     1  UNL1        0.2483
      2 O          63.8535   88.0845   12.9426 O.2     1  UNL1       -0.2726
      3 N          64.9031   89.3113   14.9782 N.am    1  UNL1       -0.2823
      4 H          65.1424   89.3279   15.9330 H       1  UNL1        0.1549
      5 C          65.2235   90.4875   14.1040 C.ar    1  UNL1        0.0503
      6 C          64.3296   90.8290   12.9490 C.ar    1  UNL1        0.0144
      7 C          64.6500   92.0052   12.0748 C.ar    1  UNL1       -0.0002
      8 C          65.8643   92.8398   12.3559 C.ar    1  UNL1        0.0182
      9 C          66.7582   92.4982   13.5110 C.ar    1  UNL1       -0.0002
     10 C          66.4378   91.3220   14.3851 C.ar    1  UNL1        0.0144
     11 C          66.1847   94.0159   11.4818 C.3     1  UNL1        0.2827
     12 O          65.7286   94.9462   12.5665 O.3     1  UNL1       -0.3692
     13 H          65.8256   95.8638   12.2673 H       1  UNL1        0.2112
     14 C          66.5052   95.1920   10.6078 C.3     1  UNL1        0.4311
     15 F          66.8257   96.3682    9.7337 F       1  UNL1       -0.1669
     16 F          65.0404   95.4231   10.3817 F       1  UNL1       -0.1669
     17 F          67.3867   95.1413   10.6774 F       1  UNL1       -0.1669
     18 C          66.6409   93.0856   10.3972 C.3     1  UNL1        0.4311
     19 F          67.0971   92.1552    9.3126 F       1  UNL1       -0.1669
     20 F          65.9767   93.2436    9.8330 F       1  UNL1       -0.1669
     21 F          67.9053   92.4880   10.9396 F       1  UNL1       -0.1669
     22 C          63.8977   86.9337   15.2715 C.3     1  UNL1        0.1719
     23 C          63.1965   82.8875   13.4311 C.ar    1  UNL1        0.1056
     24 C          63.8793   82.9979   14.7621 C.ar    1  UNL1        0.0181
     25 C          64.1130   84.3466   15.3756 C.ar    1  UNL1       -0.0009
     26 C          63.6640   85.5849   14.6580 C.ar    1  UNL1        0.0044
     27 C          62.9812   85.4745   13.3270 C.ar    1  UNL1       -0.0009
     28 C          62.7475   84.1258   12.7136 C.ar    1  UNL1        0.0181
     29 S          62.9628   81.5388   12.8177 S.O2    1  UNL1        0.0087
     30 O          62.7073   82.1872   11.4894 O.2     1  UNL1       -0.1686
     31 O          63.2184   80.8903   14.1459 O.2     1  UNL1       -0.1686
     32 C          62.8844   80.0022   10.7242 C.3     1  UNL1        0.0276
     33 C          62.7291   80.1900   12.2042 C.3     1  UNL1        0.1560
     34 N          63.8110   87.1062   16.7589 N.am    1  UNL1       -0.2950
     35 C          62.5688   86.6924   17.4909 C.2     1  UNL1        0.2235
     36 C          62.4822   86.8650   18.9784 C.3     1  UNL1        0.0946
     37 O          61.4133   86.1060   16.7353 O.2     1  UNL1       -0.2751
     38 H          64.5694   87.4911   17.2549 H       1  UNL1        0.1501
@<TRIPOS>BOND
     1    32    33    1
     2    33    29    1
     3    29    30    2
     4    29    31    2
     5    29    23    1
     6    23    24   ar
     7    24    25   ar
     8    25    26   ar
     9    26    22    1
    10    22    34    1
    11    34    35   am
    12    35    36    1
    13    35    37    2
    14    22     1    1
    15     1     2    2
    16     1     3   am
    17     3     5    1
    18     5     6   ar
    19     6     7   ar
    20     7     8   ar
    21     8    11    1
    22    11    12    1
    23    11    14    1
    24    14    15    1
    25    14    16    1
    26    14    17    1
    27    11    18    1
    28    18    19    1
    29    18    20    1
    30    18    21    1
    31     8     9   ar
    32     9    10   ar
    33    26    27   ar
    34    27    28   ar
    35    28    23   ar
    36    10     5   ar
    37    34    38    1
    38     3     4    1
    39    12    13    1
@<TRIPOS>MOLECULE
*****
 38 39 0 0 0
SMALL
GASTEIGER

@<TRIPOS>ATOM
      1 C          62.3751   88.3666   11.9091 C.2     1  UNL1        0.2483
      2 O          63.4248   87.5537   12.6073 O.2     1  UNL1       -0.2726
      3 N          62.5068   89.8591   11.8375 N.am    1  UNL1       -0.2823
      4 H          61.8179   90.3926   11.3793 H       1  UNL1        0.1549
      5 C          63.6881   90.5387   12.4642 C.ar    1  UNL1        0.0503
      6 C          64.3516   91.6870   11.7634 C.ar    1  UNL1        0.0144
      7 C          65.5330   92.3666   12.3900 C.ar    1  UNL1       -0.0002
      8 C          66.0508   91.8978   13.7175 C.ar    1  UNL1        0.0182
      9 C          65.3872   90.7495   14.4183 C.ar    1  UNL1       -0.0002
     10 C          64.2059   90.0699   13.7916 C.ar    1  UNL1        0.0144
     11 C          67.2321   92.5774   14.3441 C.3     1  UNL1        0.2827
     12 O          67.9806   92.4708   13.0487 O.3     1  UNL1       -0.3692
     13 H          68.8622   92.8621   13.1515 H       1  UNL1        0.2112
     14 C          68.4133   93.2569   14.9708 C.3     1  UNL1        0.4311
     15 F          69.5947   93.9365   15.5975 F       1  UNL1       -0.1669
     16 F          69.2672   92.0652   14.6535 F       1  UNL1       -0.1669
     17 F          67.9979   94.0043   15.2019 F       1  UNL1       -0.1669
     18 C          66.4835   92.6840   15.6396 C.3     1  UNL1        0.4311
     19 F          65.7349   92.7906   16.9351 F       1  UNL1       -0.1669
     20 F          65.7699   93.0986   15.3182 F       1  UNL1       -0.1669
     21 F          67.3946   92.0360   16.6397 F       1  UNL1       -0.1669
     22 C          61.1938   87.6870   11.2825 C.3     1  UNL1        0.1719
     23 C          61.7023   85.3536    7.4685 C.ar    1  UNL1        0.1056
     24 C          62.8258   85.4246    8.4597 C.ar    1  UNL1        0.0181
     25 C          62.6563   86.2024    9.7311 C.ar    1  UNL1       -0.0009
     26 C          61.3633   86.9092   10.0111 C.ar    1  UNL1        0.0044
     27 C          60.2398   86.8382    9.0199 C.ar    1  UNL1       -0.0009
     28 C          60.4093   86.0604    7.7485 C.ar    1  UNL1        0.0181
     29 S          61.8718   84.5758    6.1971 S.O2    1  UNL1        0.0087
     30 O          63.3499   84.8279    6.2399 O.2     1  UNL1       -0.1686
     31 O          60.3938   84.3237    6.1543 O.2     1  UNL1       -0.1686
     32 C          61.6133   84.3956    3.6182 C.3     1  UNL1        0.0276
     33 C          62.0413   83.7980    4.9258 C.3     1  UNL1        0.1560
     34 N          59.8431   87.7852   11.9272 N.am    1  UNL1       -0.2950
     35 C          59.1352   89.1063   11.9878 C.2     1  UNL1        0.2235
     36 C          57.7843   89.2044   12.6326 C.3     1  UNL1        0.0946
     37 O          59.7781   90.3291   11.4037 O.2     1  UNL1       -0.2751
     38 H          59.4211   86.9826   12.3106 H       1  UNL1        0.1501
@<TRIPOS>BOND
     1    32    33    1
     2    33    29    1
     3    29    30    2
     4    29    31    2
     5    29    23    1
     6    23    24   ar
     7    24    25   ar
     8    25    26   ar
     9    26    22    1
    10    22    34    1
    11    34    35   am
    12    35    36    1
    13    35    37    2
    14    22     1    1
    15     1     2    2
    16     1     3   am
    17     3     5    1
    18     5     6   ar
    19     6     7   ar
    20     7     8   ar
    21     8    11    1
    22    11    12    1
    23    11    14    1
    24    14    15    1
    25    14    16    1
    26    14    17    1
    27    11    18    1
    28    18    19    1
    29    18    20    1
    30    18    21    1
    31     8     9   ar
    32     9    10   ar
    33    26    27   ar
    34    27    28   ar
    35    28    23   ar
    36    10     5   ar
    37    34    38    1
    38     3     4    1
    39    12    13    1
@<TRIPOS>MOLECULE
*****
 38 39 0 0 0
SMALL
GASTEIGER

@<TRIPOS>ATOM
      1 C          62.8881   87.5117   12.4721 C.2     1  UNL1        0.2483
      2 O          63.9568   86.9330   13.3515 O.2     1  UNL1       -0.2726
      3 N          62.8036   88.9959   12.2722 N.am    1  UNL1       -0.2823
      4 H          62.1022   89.3757   11.6950 H       1  UNL1        0.1549
      5 C          63.7876   89.9014   12.9517 C.ar    1  UNL1        0.0503
      6 C          64.3157   89.5500   14.3109 C.ar    1  UNL1        0.0144
      7 C          65.2998   90.4555   14.9905 C.ar    1  UNL1       -0.0002
      8 C          65.7557   91.7125   14.3107 C.ar    1  UNL1        0.0182
      9 C          65.2275   92.0640   12.9514 C.ar    1  UNL1       -0.0002
     10 C          64.2435   91.1584   12.2719 C.ar    1  UNL1        0.0144
     11 C          66.7397   92.6181   14.9901 C.3     1  UNL1        0.2827
     12 O          65.6699   93.0672   15.9408 O.3     1  UNL1       -0.3692
     13 H          66.0393   93.7161   16.5600 H       1  UNL1        0.2112
     14 C          67.7237   93.5236   15.6696 C.3     1  UNL1        0.4311
     15 F          68.7077   94.4292   16.3490 F       1  UNL1       -0.1669
     16 F          68.0091   92.4540   16.6817 F       1  UNL1       -0.1669
     17 F          67.6272   94.2157   15.1252 F       1  UNL1       -0.1669
     18 C          67.8094   92.1689   14.0394 C.3     1  UNL1        0.4311
     19 F          68.8793   91.7198   13.0887 F       1  UNL1       -0.1669
     20 F          68.1399   91.5222   14.5464 F       1  UNL1       -0.1669
     21 F          67.6487   93.0775   12.8567 F       1  UNL1       -0.1669
     22 C          61.9042   86.6061   11.7926 C.3     1  UNL1        0.1719
     23 C          62.6102   82.1624   11.7253 C.ar    1  UNL1        0.1056
     24 C          62.3175   82.8557   13.0228 C.ar    1  UNL1        0.0181
     25 C          62.0821   84.3369   13.0452 C.ar    1  UNL1       -0.0009
     26 C          62.1395   85.1249   11.7702 C.ar    1  UNL1        0.0044
     27 C          62.4323   84.4315   10.4727 C.ar    1  UNL1       -0.0009
     28 C          62.6676   82.9503   10.4502 C.ar    1  UNL1        0.0181
     29 S          62.8456   80.6811   11.7029 S.O2    1  UNL1        0.0087
     30 O          62.5310   80.6089   13.1677 O.2     1  UNL1       -0.1686
     31 O          63.1602   80.7533   10.2380 O.2     1  UNL1       -0.1686
     32 C          62.7870   78.4125   10.4380 C.3     1  UNL1        0.0276
     33 C          63.0809   79.1999   11.6804 C.3     1  UNL1        0.1560
     34 N          60.6848   87.1818   11.1356 N.am    1  UNL1       -0.2950
     35 C          60.7261   87.5706    9.6874 C.2     1  UNL1        0.2235
     36 C          59.5067   88.1464    9.0304 C.3     1  UNL1        0.0946
     37 O          61.9867   87.3837    8.8963 O.2     1  UNL1       -0.2751
     38 H          59.8574   87.3045   11.6548 H       1  UNL1        0.1501
@<TRIPOS>BOND
     1    32    33    1
     2    33    29    1
     3    29    30    2
     4    29    31    2
     5    29    23    1
     6    23    24   ar
     7    24    25   ar
     8    25    26   ar
     9    26    22    1
    10    22    34    1
    11    34    35   am
    12    35    36    1
    13    35    37    2
    14    22     1    1
    15     1     2    2
    16     1     3   am
    17     3     5    1
    18     5     6   ar
    19     6     7   ar
    20     7     8   ar
    21     8    11    1
    22    11    12    1
    23    11    14    1
    24    14    15    1
    25    14    16    1
    26    14    17    1
    27    11    18    1
    28    18    19    1
    29    18    20    1
    30    18    21    1
    31     8     9   ar
    32     9    10   ar
    33    26    27   ar
    34    27    28   ar
    35    28    23   ar
    36    10     5   ar
    37    34    38    1
    38     3     4    1
    39    12    13    1
@<TRIPOS>MOLECULE
*****
 38 39 0 0 0
SMALL
GASTEIGER

@<TRIPOS>ATOM
      1 C          63.9219   86.6195   14.5641 C.2     1  UNL1        0.2483
      2 O          65.1795   85.8044   14.6281 O.2     1  UNL1       -0.2726
      3 N          62.7009   86.0632   13.8935 N.am    1  UNL1       -0.2823
      4 H          61.8755   86.5982   13.8515 H       1  UNL1        0.1549
      5 C          62.7375   84.6917   13.2870 C.ar    1  UNL1        0.0503
      6 C          63.2869   84.4974   11.9048 C.ar    1  UNL1        0.0144
      7 C          63.3235   83.1259   11.2983 C.ar    1  UNL1       -0.0002
      8 C          62.8108   81.9489   12.0740 C.ar    1  UNL1        0.0182
      9 C          62.2614   82.1433   13.4562 C.ar    1  UNL1       -0.0002
     10 C          62.2248   83.5147   14.0626 C.ar    1  UNL1        0.0144
     11 C          62.8473   80.5775   11.4675 C.3     1  UNL1        0.2827
     12 O          62.9970   81.1844   10.1040 O.3     1  UNL1       -0.3692
     13 H          63.0516   80.4791    9.4403 H       1  UNL1        0.2112
     14 C          62.8839   79.2061   10.8610 C.3     1  UNL1        0.4311
     15 F          62.9205   77.8345   10.2546 F       1  UNL1       -0.1669
     16 F          63.0773   79.8119    9.5026 F       1  UNL1       -0.1669
     17 F          62.7733   78.7522   11.6136 F       1  UNL1       -0.1669
     18 C          62.6977   79.9705   12.8310 C.3     1  UNL1        0.4311
     19 F          62.5481   79.3635   14.1946 F       1  UNL1       -0.1669
     20 F          61.8885   79.6314   12.7100 F       1  UNL1       -0.1669
     21 F          63.9834   80.3128   13.5238 F       1  UNL1       -0.1669
     22 C          63.8853   87.9909   15.1706 C.3     1  UNL1        0.1719
     23 C          64.9915   91.5786   12.6897 C.ar    1  UNL1        0.1056
     24 C          63.8934   90.6630   12.2363 C.ar    1  UNL1        0.0181
     25 C          63.5246   89.4671   13.0633 C.ar    1  UNL1       -0.0009
     26 C          64.2541   89.1868   14.3436 C.ar    1  UNL1        0.0044
     27 C          65.3522   90.1025   14.7970 C.ar    1  UNL1       -0.0009
     28 C          65.7209   91.2984   13.9701 C.ar    1  UNL1        0.0181
     29 S          65.3602   92.7745   11.8628 S.O2    1  UNL1        0.0087
     30 O          65.8278   93.4849   13.0985 O.2     1  UNL1       -0.1686
     31 O          64.8927   92.0642   10.6271 O.2     1  UNL1       -0.1686
     32 C          66.6546   93.8166    9.8656 C.3     1  UNL1        0.0276
     33 C          65.7289   93.9705   11.0358 C.3     1  UNL1        0.1560
     34 N          63.4801   88.1664   16.6041 N.am    1  UNL1       -0.2950
     35 C          62.9615   86.9958   17.3856 C.2     1  UNL1        0.2235
     36 C          62.5562   87.1713   18.8191 C.3     1  UNL1        0.0946
     37 O          62.8481   85.6497   16.7336 O.2     1  UNL1       -0.2751
     38 H          63.5544   89.0499   17.0320 H       1  UNL1        0.1501
@<TRIPOS>BOND
     1    32    33    1
     2    33    29    1
     3    29    30    2
     4    29    31    2
     5    29    23    1
     6    23    24   ar
     7    24    25   ar
     8    25    26   ar
     9    26    22    1
    10    22    34    1
    11    34    35   am
    12    35    36    1
    13    35    37    2
    14    22     1    1
    15     1     2    2
    16     1     3   am
    17     3     5    1
    18     5     6   ar
    19     6     7   ar
    20     7     8   ar
    21     8    11    1
    22    11    12    1
    23    11    14    1
    24    14    15    1
    25    14    16    1
    26    14    17    1
    27    11    18    1
    28    18    19    1
    29    18    20    1
    30    18    21    1
    31     8     9   ar
    32     9    10   ar
    33    26    27   ar
    34    27    28   ar
    35    28    23   ar
    36    10     5   ar
    37    34    38    1
    38     3     4    1
    39    12    13    1
@<TRIPOS>MOLECULE
*****
 38 39 0 0 0
SMALL
GASTEIGER

@<TRIPOS>ATOM
      1 C          64.0512   88.6041   13.9441 C.2     1  UNL1        0.2483
      2 O          64.8100   87.6764   14.8463 O.2     1  UNL1       -0.2726
      3 N          63.2311   88.0500   12.8171 N.am    1  UNL1       -0.2823
      4 H          62.7331   88.6589   12.2250 H       1  UNL1        0.1549
      5 C          63.1696   86.5682   12.5922 C.ar    1  UNL1        0.0503
      6 C          62.4597   86.0210   11.3895 C.ar    1  UNL1        0.0144
      7 C          62.3983   84.5392   11.1645 C.ar    1  UNL1       -0.0002
      8 C          63.0468   83.6046   12.1424 C.ar    1  UNL1        0.0182
      9 C          63.7567   84.1519   13.3451 C.ar    1  UNL1       -0.0002
     10 C          63.8181   85.6337   13.5700 C.ar    1  UNL1        0.0144
     11 C          62.9853   82.1229   11.9175 C.3     1  UNL1        0.2827
     12 O          63.6713   82.2952   10.5948 O.3     1  UNL1       -0.3692
     13 H          63.7817   81.4289   10.1725 H       1  UNL1        0.2112
     14 C          62.9239   80.6412   11.6926 C.3     1  UNL1        0.4311
     15 F          62.8625   79.1593   11.4678 F       1  UNL1       -0.1669
     16 F          62.9174   80.8665   10.2097 F       1  UNL1       -0.1669
     17 F          62.9233   80.4024   12.5457 F       1  UNL1       -0.1669
     18 C          62.2994   81.9506   13.2403 C.3     1  UNL1        0.4311
     19 F          61.6134   81.7783   14.5631 F       1  UNL1       -0.1669
     20 F          61.4692   82.0341   12.9431 F       1  UNL1       -0.1669
     21 F          63.4261   81.7500   14.2100 F       1  UNL1       -0.1669
     22 C          64.1127   90.0859   14.1691 C.3     1  UNL1        0.1719
     23 C          66.0156   92.7530   11.0844 C.ar    1  UNL1        0.1056
     24 C          66.7940   92.3337   12.2961 C.ar    1  UNL1        0.0181
     25 C          66.1597   91.4447   13.3243 C.ar    1  UNL1       -0.0009
     26 C          64.7470   90.9749   13.1409 C.ar    1  UNL1        0.0044
     27 C          63.9687   91.3942   11.9291 C.ar    1  UNL1       -0.0009
     28 C          64.6030   92.2832   10.9009 C.ar    1  UNL1        0.0181
     29 S          66.6499   93.6420   10.0561 S.O2    1  UNL1        0.0087
     30 O          65.6423   94.7112   10.3590 O.2     1  UNL1       -0.1686
     31 O          67.6575   92.5729    9.7533 O.2     1  UNL1       -0.1686
     32 C          68.2042   93.9476    7.9968 C.3     1  UNL1        0.0276
     33 C          67.2842   94.5311    9.0279 C.3     1  UNL1        0.1560
     34 N          63.5399   90.6786   15.4223 N.am    1  UNL1       -0.2950
     35 C          64.2827   91.7613   16.1474 C.2     1  UNL1        0.2235
     36 C          63.7098   92.3540   17.4007 C.3     1  UNL1        0.0946
     37 O          65.5983   92.2514   15.6194 O.2     1  UNL1       -0.2751
     38 H          62.6764   90.3569   15.7689 H       1  UNL1        0.1501
@<TRIPOS>BOND
     1    32    33    1
     2    33    29    1
     3    29    30    2
     4    29    31    2
     5    29    23    1
     6    23    24   ar
     7    24    25   ar
     8    25    26   ar
     9    26    22    1
    10    22    34    1
    11    34    35   am
    12    35    36    1
    13    35    37    2
    14    22     1    1
    15     1     2    2
    16     1     3   am
    17     3     5    1
    18     5     6   ar
    19     6     7   ar
    20     7     8   ar
    21     8    11    1
    22    11    12    1
    23    11    14    1
    24    14    15    1
    25    14    16    1
    26    14    17    1
    27    11    18    1
    28    18    19    1
    29    18    20    1
    30    18    21    1
    31     8     9   ar
    32     9    10   ar
    33    26    27   ar
    34    27    28   ar
    35    28    23   ar
    36    10     5   ar
    37    34    38    1
    38     3     4    1
    39    12    13    1
