@<TRIPOS>MOLECULE
*****
 28 32 0 0 0
SMALL
GASTEIGER

@<TRIPOS>ATOM
      1 N          61.5398   88.0167   10.6758 N.ar    1  UNL1       -0.2954
      2 C          62.1031   89.4061   10.6280 C.ar    1  UNL1        0.2014
      3 N          61.4905   90.1144    9.4563 N.ar    1  UNL1       -0.2136
      4 C          60.5486   89.1629    8.7800 C.ar    1  UNL1        0.0999
      5 C          59.6671   89.3095    7.5752 C.ar    1  UNL1        0.0207
      6 C          58.8161   88.1595    7.1242 C.ar    1  UNL1        0.0016
      7 C          58.8466   86.8630    7.8780 C.ar    1  UNL1        0.0016
      8 C          59.7281   86.7164    9.0827 C.ar    1  UNL1        0.0188
      9 C          60.5791   87.8664    9.5337 C.ar    1  UNL1        0.0801
     10 N          63.1034   89.9853   11.5840 N.pl3   1  UNL1       -0.2794
     11 C          63.4150   89.2727   12.8665 C.3     1  UNL1        0.0955
     12 C          64.4153   89.8520   13.8225 C.3     1  UNL1        0.0441
     13 C          65.1039   91.1439   13.4959 C.3     1  UNL1        0.0890
     14 C          64.7922   91.8566   12.2134 C.3     1  UNL1        0.0441
     15 C          63.7920   91.2773   11.2574 C.3     1  UNL1        0.0955
     16 N          66.1042   91.7232   14.4519 N.ar    1  UNL1       -0.3267
     17 C          67.5939   91.7229   14.2768 C.ar    1  UNL1        0.0759
     18 C          68.2008   92.4040   15.4675 C.ar    1  UNL1        0.0202
     19 C          67.0861   92.8253   16.3785 C.ar    1  UNL1        0.0202
     20 C          65.7903   92.4046   15.7508 C.ar    1  UNL1        0.0759
     21 C          61.8779   86.9626   11.6881 C.3     1  UNL1        0.1354
     22 F          64.5506   81.8801    9.9488 F       1  UNL1       -0.2042
     23 C          63.8824   83.1507   10.3837 C.ar    1  UNL1        0.1401
     24 C          63.4289   84.1482    9.3592 C.ar    1  UNL1        0.0294
     25 C          62.7607   85.4188    9.7941 C.ar    1  UNL1       -0.0001
     26 C          62.5460   85.6920   11.2533 C.ar    1  UNL1        0.0006
     27 C          62.9996   84.6946   12.2777 C.ar    1  UNL1       -0.0001
     28 C          63.6678   83.4239   11.8428 C.ar    1  UNL1        0.0294
@<TRIPOS>BOND
     1    22    23    1
     2    23    24   ar
     3    24    25   ar
     4    25    26   ar
     5    26    21    1
     6    21     1    1
     7     1     2   ar
     8     2    10    1
     9    10    11    1
    10    11    12    1
    11    12    13    1
    12    13    16    1
    13    16    17   ar
    14    17    18   ar
    15    18    19   ar
    16    19    20   ar
    17    13    14    1
    18    14    15    1
    19     2     3   ar
    20     3     4   ar
    21     4     5   ar
    22     5     6   ar
    23     6     7   ar
    24     7     8   ar
    25     8     9   ar
    26    26    27   ar
    27    27    28   ar
    28    28    23   ar
    29     9     1   ar
    30    15    10    1
    31     9     4   ar
    32    20    16   ar
@<TRIPOS>MOLECULE
*****
 28 32 0 0 0
SMALL
GASTEIGER

@<TRIPOS>ATOM
      1 N          64.4379   91.0362   14.3102 N.ar    1  UNL1       -0.2954
      2 C          64.4952   91.0460   12.8113 C.ar    1  UNL1        0.2014
      3 N          65.6972   91.8429   12.3987 N.ar    1  UNL1       -0.2136
      4 C          66.3827   92.3255   13.6425 C.ar    1  UNL1        0.0999
      5 C          67.6151   93.1545   13.8520 C.ar    1  UNL1        0.0207
      6 C          68.0692   93.4850   15.2429 C.ar    1  UNL1        0.0016
      7 C          67.2909   92.9864   16.4243 C.ar    1  UNL1        0.0016
      8 C          66.0585   92.1574   16.2148 C.ar    1  UNL1        0.0188
      9 C          65.6044   91.8269   14.8239 C.ar    1  UNL1        0.0801
     10 N          63.5215   90.3766   11.8873 N.pl3   1  UNL1       -0.2794
     11 C          62.8951   91.1531   10.7672 C.3     1  UNL1        0.0955
     12 C          61.9214   90.4837    9.8432 C.3     1  UNL1        0.0441
     13 C          61.5741   89.0377   10.0393 C.3     1  UNL1        0.0890
     14 C          62.2005   88.2612   11.1593 C.3     1  UNL1        0.0441
     15 C          63.1742   88.9306   12.0833 C.3     1  UNL1        0.0955
     16 N          60.6004   88.3683    9.1153 N.ar    1  UNL1       -0.3267
     17 C          60.2629   86.9069    9.0985 C.ar    1  UNL1        0.0759
     18 C          59.2472   86.6781    8.0187 C.ar    1  UNL1        0.0202
     19 C          58.9569   87.9981    7.3681 C.ar    1  UNL1        0.0202
     20 C          59.7933   89.0427    8.0459 C.ar    1  UNL1        0.0759
     21 C          63.3968   90.3551   15.1482 C.3     1  UNL1        0.1354
     22 F          63.9896   84.5479   16.5353 F       1  UNL1       -0.2042
     23 C          63.8414   85.9997   16.1886 C.ar    1  UNL1        0.1401
     24 C          64.4894   86.5450   14.9505 C.ar    1  UNL1        0.0294
     25 C          64.3412   87.9968   14.6038 C.ar    1  UNL1       -0.0001
     26 C          63.5450   88.9034   15.4950 C.ar    1  UNL1        0.0006
     27 C          62.8970   88.3580   16.7330 C.ar    1  UNL1       -0.0001
     28 C          63.0452   86.9062   17.0798 C.ar    1  UNL1        0.0294
@<TRIPOS>BOND
     1    22    23    1
     2    23    24   ar
     3    24    25   ar
     4    25    26   ar
     5    26    21    1
     6    21     1    1
     7     1     2   ar
     8     2    10    1
     9    10    11    1
    10    11    12    1
    11    12    13    1
    12    13    16    1
    13    16    17   ar
    14    17    18   ar
    15    18    19   ar
    16    19    20   ar
    17    13    14    1
    18    14    15    1
    19     2     3   ar
    20     3     4   ar
    21     4     5   ar
    22     5     6   ar
    23     6     7   ar
    24     7     8   ar
    25     8     9   ar
    26    26    27   ar
    27    27    28   ar
    28    28    23   ar
    29     9     1   ar
    30    15    10    1
    31     9     4   ar
    32    20    16   ar
@<TRIPOS>MOLECULE
*****
 28 32 0 0 0
SMALL
GASTEIGER

@<TRIPOS>ATOM
      1 N          63.5316   83.6531   11.5498 N.ar    1  UNL1       -0.2954
      2 C          63.4688   84.1243   12.9725 C.ar    1  UNL1        0.2014
      3 N          63.1205   82.9479   13.8354 N.ar    1  UNL1       -0.2136
      4 C          62.9680   81.7496   12.9461 C.ar    1  UNL1        0.0999
      5 C          62.6306   80.3180   13.2400 C.ar    1  UNL1        0.0207
      6 C          62.5473   79.3222   12.1213 C.ar    1  UNL1        0.0016
      7 C          62.8014   79.7581   10.7087 C.ar    1  UNL1        0.0016
      8 C          63.1388   81.1897   10.4148 C.ar    1  UNL1        0.0188
      9 C          63.2221   82.1855   11.5335 C.ar    1  UNL1        0.0801
     10 N          63.7117   85.5259   13.4486 N.pl3   1  UNL1       -0.2794
     11 C          64.3733   85.7638   14.7736 C.3     1  UNL1        0.0955
     12 C          64.6162   87.1653   15.2498 C.3     1  UNL1        0.0441
     13 C          64.1974   88.3289   14.4010 C.3     1  UNL1        0.0890
     14 C          63.5358   88.0910   13.0760 C.3     1  UNL1        0.0441
     15 C          63.2929   86.6895   12.5998 C.3     1  UNL1        0.0955
     16 N          64.4403   89.7305   14.8771 N.ar    1  UNL1       -0.3267
     17 C          65.4709   90.6783   14.3391 C.ar    1  UNL1        0.0759
     18 C          65.3628   91.9639   15.1044 C.ar    1  UNL1        0.0202
     19 C          64.2653   91.8106   16.1153 C.ar    1  UNL1        0.0202
     20 C          63.6952   90.4303   15.9749 C.ar    1  UNL1        0.0759
     21 C          63.8483   84.5008   10.3535 C.3     1  UNL1        0.1354
     22 F          59.4070   86.6589    6.9451 F       1  UNL1       -0.2042
     23 C          60.5174   86.1194    7.7971 C.ar    1  UNL1        0.1401
     24 C          60.4943   86.3317    9.2819 C.ar    1  UNL1        0.0294
     25 C          61.6046   85.7922   10.1340 C.ar    1  UNL1       -0.0001
     26 C          62.7381   85.0403    9.5014 C.ar    1  UNL1        0.0006
     27 C          62.7611   84.8280    8.0166 C.ar    1  UNL1       -0.0001
     28 C          61.6507   85.3676    7.1646 C.ar    1  UNL1        0.0294
@<TRIPOS>BOND
     1    22    23    1
     2    23    24   ar
     3    24    25   ar
     4    25    26   ar
     5    26    21    1
     6    21     1    1
     7     1     2   ar
     8     2    10    1
     9    10    11    1
    10    11    12    1
    11    12    13    1
    12    13    16    1
    13    16    17   ar
    14    17    18   ar
    15    18    19   ar
    16    19    20   ar
    17    13    14    1
    18    14    15    1
    19     2     3   ar
    20     3     4   ar
    21     4     5   ar
    22     5     6   ar
    23     6     7   ar
    24     7     8   ar
    25     8     9   ar
    26    26    27   ar
    27    27    28   ar
    28    28    23   ar
    29     9     1   ar
    30    15    10    1
    31     9     4   ar
    32    20    16   ar
@<TRIPOS>MOLECULE
*****
 28 32 0 0 0
SMALL
GASTEIGER

@<TRIPOS>ATOM
      1 N          62.3044   87.5166   10.2137 N.ar    1  UNL1       -0.2954
      2 C          62.1589   88.9569   10.6063 C.ar    1  UNL1        0.2014
      3 N          60.9465   89.5057    9.9142 N.ar    1  UNL1       -0.2136
      4 C          60.3428   88.4045    9.0939 C.ar    1  UNL1        0.0999
      5 C          59.1373   88.3624    8.2023 C.ar    1  UNL1        0.0207
      6 C          58.7710   87.0909    7.4959 C.ar    1  UNL1        0.0016
      7 C          59.6103   85.8615    7.6810 C.ar    1  UNL1        0.0016
      8 C          60.8158   85.9036    8.5726 C.ar    1  UNL1        0.0188
      9 C          61.1820   87.1751    9.2790 C.ar    1  UNL1        0.0801
     10 N          63.0663   89.7154   11.5290 N.pl3   1  UNL1       -0.2794
     11 C          63.6446   91.0306   11.0983 C.3     1  UNL1        0.0955
     12 C          64.5521   91.7891   12.0210 C.3     1  UNL1        0.0441
     13 C          64.8813   91.2322   13.3743 C.3     1  UNL1        0.0890
     14 C          64.3030   89.9169   13.8049 C.3     1  UNL1        0.0441
     15 C          63.3955   89.1585   12.8823 C.3     1  UNL1        0.0955
     16 N          65.7887   91.9906   14.2969 N.ar    1  UNL1       -0.3267
     17 C          66.9806   92.8049   13.8888 C.ar    1  UNL1        0.0759
     18 C          67.5921   93.3855   15.1294 C.ar    1  UNL1        0.0202
     19 C          66.7783   92.9300   16.3042 C.ar    1  UNL1        0.0202
     20 C          65.6637   92.0680   15.7897 C.ar    1  UNL1        0.0759
     21 C          63.3830   86.5817   10.6749 C.3     1  UNL1        0.1354
     22 F          62.0233   81.9693   14.2634 F       1  UNL1       -0.2042
     23 C          62.3632   83.1224   13.3662 C.ar    1  UNL1        0.1401
     24 C          62.6579   84.4698   13.9558 C.ar    1  UNL1        0.0294
     25 C          62.9978   85.6229   13.0587 C.ar    1  UNL1       -0.0001
     26 C          63.0431   85.4286   11.5720 C.ar    1  UNL1        0.0006
     27 C          62.7484   84.0811   10.9825 C.ar    1  UNL1       -0.0001
     28 C          62.4085   82.9281   11.8796 C.ar    1  UNL1        0.0294
@<TRIPOS>BOND
     1    22    23    1
     2    23    24   ar
     3    24    25   ar
     4    25    26   ar
     5    26    21    1
     6    21     1    1
     7     1     2   ar
     8     2    10    1
     9    10    11    1
    10    11    12    1
    11    12    13    1
    12    13    16    1
    13    16    17   ar
    14    17    18   ar
    15    18    19   ar
    16    19    20   ar
    17    13    14    1
    18    14    15    1
    19     2     3   ar
    20     3     4   ar
    21     4     5   ar
    22     5     6   ar
    23     6     7   ar
    24     7     8   ar
    25     8     9   ar
    26    26    27   ar
    27    27    28   ar
    28    28    23   ar
    29     9     1   ar
    30    15    10    1
    31     9     4   ar
    32    20    16   ar
@<TRIPOS>MOLECULE
*****
 28 32 0 0 0
SMALL
GASTEIGER

@<TRIPOS>ATOM
      1 N          62.0522   87.0516   11.3551 N.ar    1  UNL1       -0.2954
      2 C          61.6820   86.7047    9.9435 C.ar    1  UNL1        0.2014
      3 N          62.1999   85.3271    9.6537 N.ar    1  UNL1       -0.2136
      4 C          62.8901   84.8226   10.8862 C.ar    1  UNL1        0.0999
      5 C          63.5900   83.5304   11.1868 C.ar    1  UNL1        0.0207
      6 C          64.1986   83.3040   12.5389 C.ar    1  UNL1        0.0016
      7 C          64.1073   84.3698   13.5904 C.ar    1  UNL1        0.0016
      8 C          63.4075   85.6620   13.2899 C.ar    1  UNL1        0.0188
      9 C          62.7989   85.8884   11.9377 C.ar    1  UNL1        0.0801
     10 N          60.9265   87.5815    8.9893 N.pl3   1  UNL1       -0.2794
     11 C          60.9561   89.0718    9.1563 C.3     1  UNL1        0.0955
     12 C          60.2006   89.9486    8.2021 C.3     1  UNL1        0.0441
     13 C          59.4156   89.3350    7.0808 C.3     1  UNL1        0.0890
     14 C          59.3861   87.8447    6.9138 C.3     1  UNL1        0.0441
     15 C          60.1415   86.9679    7.8680 C.3     1  UNL1        0.0955
     16 N          58.6602   90.2118    6.1266 N.ar    1  UNL1       -0.3267
     17 C          57.1716   90.2387    5.9438 C.ar    1  UNL1        0.0759
     18 C          56.8521   91.2591    4.8918 C.ar    1  UNL1        0.0202
     19 C          58.1432   91.8630    4.4245 C.ar    1  UNL1        0.0202
     20 C          59.2606   91.2157    5.1876 C.ar    1  UNL1        0.0759
     21 C          61.7320   88.3361   12.0603 C.3     1  UNL1        0.1354
     22 F          66.0391   92.4123   12.9729 F       1  UNL1       -0.2042
     23 C          64.9623   91.3933   12.7447 C.ar    1  UNL1        0.1401
     24 C          64.7178   90.3197   13.7634 C.ar    1  UNL1        0.0294
     25 C          63.6410   89.3007   13.5352 C.ar    1  UNL1       -0.0001
     26 C          62.8087   89.3552   12.2884 C.ar    1  UNL1        0.0006
     27 C          63.0533   90.4288   11.2698 C.ar    1  UNL1       -0.0001
     28 C          64.1301   91.4478   11.4980 C.ar    1  UNL1        0.0294
@<TRIPOS>BOND
     1    22    23    1
     2    23    24   ar
     3    24    25   ar
     4    25    26   ar
     5    26    21    1
     6    21     1    1
     7     1     2   ar
     8     2    10    1
     9    10    11    1
    10    11    12    1
    11    12    13    1
    12    13    16    1
    13    16    17   ar
    14    17    18   ar
    15    18    19   ar
    16    19    20   ar
    17    13    14    1
    18    14    15    1
    19     2     3   ar
    20     3     4   ar
    21     4     5   ar
    22     5     6   ar
    23     6     7   ar
    24     7     8   ar
    25     8     9   ar
    26    26    27   ar
    27    27    28   ar
    28    28    23   ar
    29     9     1   ar
    30    15    10    1
    31     9     4   ar
    32    20    16   ar
@<TRIPOS>MOLECULE
*****
 28 32 0 0 0
SMALL
GASTEIGER

@<TRIPOS>ATOM
      1 N          72.2756   72.9980   14.6352 N.ar    1  UNL1       -0.2954
      2 C          71.7217   74.3636   14.9149 C.ar    1  UNL1        0.2014
      3 N          70.9533   74.2975   16.2015 N.ar    1  UNL1       -0.2136
      4 C          71.0324   72.8911   16.7169 C.ar    1  UNL1        0.0999
      5 C          70.4657   72.2380   17.9426 C.ar    1  UNL1        0.0207
      6 C          70.7164   70.7817   18.2002 C.ar    1  UNL1        0.0016
      7 C          71.5336   69.9785   17.2322 C.ar    1  UNL1        0.0016
      8 C          72.1002   70.6317   16.0065 C.ar    1  UNL1        0.0188
      9 C          71.8496   72.0879   15.7489 C.ar    1  UNL1        0.0801
     10 N          71.9041   75.5815   14.0585 N.pl3   1  UNL1       -0.2794
     11 C          72.5490   76.8098   14.6289 C.3     1  UNL1        0.0955
     12 C          72.7315   78.0276   13.7724 C.3     1  UNL1        0.0441
     13 C          72.2690   78.0172   12.3456 C.3     1  UNL1        0.0890
     14 C          71.6241   76.7890   11.7752 C.3     1  UNL1        0.0441
     15 C          71.4417   75.5711   12.6316 C.3     1  UNL1        0.0955
     16 N          72.4514   79.2351   11.4891 N.ar    1  UNL1       -0.3267
     17 C          72.5113   79.2582    9.9905 C.ar    1  UNL1        0.0759
     18 C          72.7029   80.6811    9.5561 C.ar    1  UNL1        0.0202
     19 C          72.7614   81.5374   10.7862 C.ar    1  UNL1        0.0202
     20 C          72.6060   80.6438   11.9809 C.ar    1  UNL1        0.0759
     21 C          73.1093   72.6105   13.4499 C.3     1  UNL1        0.1354
     22 F          70.4832   70.4024    8.5278 F       1  UNL1       -0.2042
     23 C          71.1397   70.9544    9.7583 C.ar    1  UNL1        0.1401
     24 C          72.5994   71.2994    9.7390 C.ar    1  UNL1        0.0294
     25 C          73.2559   71.8514   10.9695 C.ar    1  UNL1       -0.0001
     26 C          72.4527   72.0585   12.2195 C.ar    1  UNL1        0.0006
     27 C          70.9931   71.7135   12.2387 C.ar    1  UNL1       -0.0001
     28 C          70.3366   71.1614   11.0082 C.ar    1  UNL1        0.0294
@<TRIPOS>BOND
     1    22    23    1
     2    23    24   ar
     3    24    25   ar
     4    25    26   ar
     5    26    21    1
     6    21     1    1
     7     1     2   ar
     8     2    10    1
     9    10    11    1
    10    11    12    1
    11    12    13    1
    12    13    16    1
    13    16    17   ar
    14    17    18   ar
    15    18    19   ar
    16    19    20   ar
    17    13    14    1
    18    14    15    1
    19     2     3   ar
    20     3     4   ar
    21     4     5   ar
    22     5     6   ar
    23     6     7   ar
    24     7     8   ar
    25     8     9   ar
    26    26    27   ar
    27    27    28   ar
    28    28    23   ar
    29     9     1   ar
    30    15    10    1
    31     9     4   ar
    32    20    16   ar
@<TRIPOS>MOLECULE
*****
 28 32 0 0 0
SMALL
GASTEIGER

@<TRIPOS>ATOM
      1 N          60.8923   94.3166   -0.4592 N.ar    1  UNL1       -0.2954
      2 C          59.5138   93.9892    0.0333 C.ar    1  UNL1        0.2014
      3 N          59.6503   93.1870    1.2934 N.ar    1  UNL1       -0.2136
      4 C          61.1130   93.0186    1.5797 C.ar    1  UNL1        0.0999
      5 C          61.8452   92.3198    2.6867 C.ar    1  UNL1        0.0207
      6 C          63.3450   92.3191    2.7105 C.ar    1  UNL1        0.0016
      7 C          64.1126   93.0173    1.6273 C.ar    1  UNL1        0.0016
      8 C          63.3804   93.7161    0.5203 C.ar    1  UNL1        0.0188
      9 C          61.8807   93.7168    0.4965 C.ar    1  UNL1        0.0801
     10 N          58.2252   94.3931   -0.6196 N.pl3   1  UNL1       -0.2794
     11 C          57.9052   95.8458   -0.8125 C.3     1  UNL1        0.0955
     12 C          56.6165   96.2496   -1.4654 C.3     1  UNL1        0.0441
     13 C          55.6479   95.2008   -1.9254 C.3     1  UNL1        0.0890
     14 C          55.9679   93.7481   -1.7325 C.3     1  UNL1        0.0441
     15 C          57.2565   93.3443   -1.0796 C.3     1  UNL1        0.0955
     16 N          54.3592   95.6047   -2.5783 N.ar    1  UNL1       -0.3267
     17 C          54.1786   95.9686   -4.0222 C.ar    1  UNL1        0.0759
     18 C          52.7327   96.3044   -4.2383 C.ar    1  UNL1        0.0202
     19 C          52.0197   96.1480   -2.9278 C.ar    1  UNL1        0.0202
     20 C          53.0250   95.7155   -1.9020 C.ar    1  UNL1        0.0759
     21 C          61.2242   95.1053   -1.6912 C.3     1  UNL1        0.1354
     22 F          65.6940   93.3286   -5.2778 F       1  UNL1       -0.2042
     23 C          64.5765   93.7727   -4.3811 C.ar    1  UNL1        0.1401
     24 C          64.5826   95.1577   -3.8050 C.ar    1  UNL1        0.0294
     25 C          63.4651   95.6019   -2.9084 C.ar    1  UNL1       -0.0001
     26 C          62.3415   94.6611   -2.5878 C.ar    1  UNL1        0.0006
     27 C          62.3355   93.2762   -3.1639 C.ar    1  UNL1       -0.0001
     28 C          63.4530   92.8320   -4.0606 C.ar    1  UNL1        0.0294
@<TRIPOS>BOND
     1    22    23    1
     2    23    24   ar
     3    24    25   ar
     4    25    26   ar
     5    26    21    1
     6    21     1    1
     7     1     2   ar
     8     2    10    1
     9    10    11    1
    10    11    12    1
    11    12    13    1
    12    13    16    1
    13    16    17   ar
    14    17    18   ar
    15    18    19   ar
    16    19    20   ar
    17    13    14    1
    18    14    15    1
    19     2     3   ar
    20     3     4   ar
    21     4     5   ar
    22     5     6   ar
    23     6     7   ar
    24     7     8   ar
    25     8     9   ar
    26    26    27   ar
    27    27    28   ar
    28    28    23   ar
    29     9     1   ar
    30    15    10    1
    31     9     4   ar
    32    20    16   ar
