@<TRIPOS>MOLECULE
*****
 21 23 0 0 0
SMALL
GASTEIGER

@<TRIPOS>ATOM
      1 C          65.0264   92.0053   11.6350 C.ar    1  UNL1        0.0252
      2 C          63.8210   91.4823   10.9115 C.ar    1  UNL1        0.0993
      3 N          62.8833   90.5370   11.6021 N.ar    1  UNL1       -0.2423
      4 C          63.1511   90.1146   13.0163 C.ar    1  UNL1        0.0989
      5 C          64.3564   90.6375   13.7398 C.ar    1  UNL1        0.0207
      6 C          65.2941   91.5829   13.0492 C.ar    1  UNL1        0.0050
      7 C          66.4995   92.1059   13.7727 C.ar    1  UNL1        0.0193
      8 C          66.3291   92.9724   14.9852 C.ar    1  UNL1        0.0031
      9 C          67.5345   93.4954   15.7087 C.ar    1  UNL1        0.0207
     10 C          68.9104   93.1518   15.2198 C.ar    1  UNL1        0.0989
     11 N          69.0808   92.2853   14.0073 N.ar    1  UNL1       -0.2423
     12 C          67.8753   91.7623   13.2838 C.ar    1  UNL1        0.0988
     13 C          66.9990   94.9866   10.1230 C.ar    1  UNL1        0.0230
     14 C          67.8153   93.8243    9.6403 C.ar    1  UNL1        0.0040
     15 C          67.1757   92.5661   10.1479 C.ar    1  UNL1        0.0067
     16 C          65.9641   92.9507   10.9444 C.ar    1  UNL1        0.0307
     17 S          65.8550   94.4466   10.9289 S.2     1  UNL1       -0.0899
     18 N          67.8078   96.8552    8.5092 N.3     1  UNL1       -0.3170
     19 C          67.2779   96.4346    9.8480 C.3     1  UNL1        0.0987
     20 H          67.9382   97.8668    8.4978 H       1  UNL1        0.1192
     21 H          67.1437   96.5898    7.7820 H       1  UNL1        0.1192
@<TRIPOS>BOND
     1    18    19    1
     2    19    13    1
     3    13    14   ar
     4    14    15   ar
     5    15    16   ar
     6    16     1    1
     7     1     2   ar
     8     2     3   ar
     9     3     4   ar
    10     4     5   ar
    11     5     6   ar
    12     6     7    1
    13     7     8   ar
    14     8     9   ar
    15     9    10   ar
    16    10    11   ar
    17    11    12   ar
    18    16    17   ar
    19    17    13   ar
    20     6     1   ar
    21    12     7   ar
    22    18    20    1
    23    18    21    1
@<TRIPOS>MOLECULE
*****
 21 23 0 0 0
SMALL
GASTEIGER

@<TRIPOS>ATOM
      1 C          64.4879   90.3839   13.8299 C.ar    1  UNL1        0.0252
      2 C          65.6305   91.2834   14.1976 C.ar    1  UNL1        0.0993
      3 N          66.0827   92.3492   13.2439 N.ar    1  UNL1       -0.2423
      4 C          65.3924   92.5155   11.9227 C.ar    1  UNL1        0.0989
      5 C          64.2497   91.6160   11.5550 C.ar    1  UNL1        0.0207
      6 C          63.7975   90.5502   12.5086 C.ar    1  UNL1        0.0050
      7 C          62.6548   89.6506   12.1410 C.ar    1  UNL1        0.0193
      8 C          62.9186   88.3528   11.4366 C.ar    1  UNL1        0.0031
      9 C          61.7760   87.4533   11.0690 C.ar    1  UNL1        0.0207
     10 C          60.3695   87.8515   11.4058 C.ar    1  UNL1        0.0989
     11 N          60.1057   89.1492   12.1101 N.ar    1  UNL1       -0.2423
     12 C          61.2484   90.0488   12.4778 C.ar    1  UNL1        0.0988
     13 C          63.6908   87.1594   15.8382 C.ar    1  UNL1        0.0230
     14 C          62.9881   88.1962   16.6638 C.ar    1  UNL1        0.0040
     15 C          63.2012   89.5302   16.0119 C.ar    1  UNL1        0.0067
     16 C          64.0355   89.3180   14.7835 C.ar    1  UNL1        0.0307
     17 S          64.3381   87.8528   14.6762 S.2     1  UNL1       -0.0899
     18 N          64.7360   84.8180   15.4193 N.3     1  UNL1       -0.3170
     19 C          63.7379   85.6877   16.1245 C.3     1  UNL1        0.0987
     20 H          64.6276   83.8534   15.7324 H       1  UNL1        0.1192
     21 H          65.6796   85.1410   15.6334 H       1  UNL1        0.1192
@<TRIPOS>BOND
     1    18    19    1
     2    19    13    1
     3    13    14   ar
     4    14    15   ar
     5    15    16   ar
     6    16     1    1
     7     1     2   ar
     8     2     3   ar
     9     3     4   ar
    10     4     5   ar
    11     5     6   ar
    12     6     7    1
    13     7     8   ar
    14     8     9   ar
    15     9    10   ar
    16    10    11   ar
    17    11    12   ar
    18    16    17   ar
    19    17    13   ar
    20     6     1   ar
    21    12     7   ar
    22    18    20    1
    23    18    21    1
@<TRIPOS>MOLECULE
*****
 21 23 0 0 0
SMALL
GASTEIGER

@<TRIPOS>ATOM
      1 C          64.0112   90.6426   12.7312 C.ar    1  UNL1        0.0252
      2 C          64.5031   91.7930   11.9038 C.ar    1  UNL1        0.0993
      3 N          65.6475   92.6316   12.3906 N.ar    1  UNL1       -0.2423
      4 C          66.2999   92.3199   13.7048 C.ar    1  UNL1        0.0989
      5 C          65.8080   91.1696   14.5322 C.ar    1  UNL1        0.0207
      6 C          64.6637   90.3309   14.0454 C.ar    1  UNL1        0.0050
      7 C          64.1717   89.1804   14.8728 C.ar    1  UNL1        0.0193
      8 C          64.5721   87.7783   14.5210 C.ar    1  UNL1        0.0031
      9 C          64.0802   86.6279   15.3484 C.ar    1  UNL1        0.0207
     10 C          63.1879   86.8796   16.5276 C.ar    1  UNL1        0.0989
     11 N          62.7875   88.2817   16.8793 N.ar    1  UNL1       -0.2423
     12 C          63.2794   89.4321   16.0519 C.ar    1  UNL1        0.0988
     13 C          60.6212   88.9969   11.8012 C.ar    1  UNL1        0.0230
     14 C          61.5905   88.0294   11.1894 C.ar    1  UNL1        0.0040
     15 C          62.9784   88.5281   11.4633 C.ar    1  UNL1        0.0067
     16 C          62.8668   89.8038   12.2444 C.ar    1  UNL1        0.0307
     17 S          61.4100   90.0936   12.4532 S.2     1  UNL1       -0.0899
     18 N          58.3640   88.6207   13.0315 N.3     1  UNL1       -0.3170
     19 C          59.1256   88.8870   11.7670 C.3     1  UNL1        0.0987
     20 H          57.3661   88.5776   12.8248 H       1  UNL1        0.1192
     21 H          58.5407   89.3712   13.6993 H       1  UNL1        0.1192
@<TRIPOS>BOND
     1    18    19    1
     2    19    13    1
     3    13    14   ar
     4    14    15   ar
     5    15    16   ar
     6    16     1    1
     7     1     2   ar
     8     2     3   ar
     9     3     4   ar
    10     4     5   ar
    11     5     6   ar
    12     6     7    1
    13     7     8   ar
    14     8     9   ar
    15     9    10   ar
    16    10    11   ar
    17    11    12   ar
    18    16    17   ar
    19    17    13   ar
    20     6     1   ar
    21    12     7   ar
    22    18    20    1
    23    18    21    1
@<TRIPOS>MOLECULE
*****
 21 23 0 0 0
SMALL
GASTEIGER

@<TRIPOS>ATOM
      1 C          63.8356   90.5854   12.6348 C.ar    1  UNL1        0.0252
      2 C          64.2874   91.7283   11.7748 C.ar    1  UNL1        0.0993
      3 N          65.4416   92.5826   12.2085 N.ar    1  UNL1       -0.2423
      4 C          66.1440   92.2939   13.5020 C.ar    1  UNL1        0.0989
      5 C          65.6922   91.1510   14.3620 C.ar    1  UNL1        0.0207
      6 C          64.5380   90.2967   13.9283 C.ar    1  UNL1        0.0050
      7 C          64.0861   89.1537   14.7883 C.ar    1  UNL1        0.0193
      8 C          64.5417   87.7580   14.4808 C.ar    1  UNL1        0.0031
      9 C          64.0899   86.6151   15.3407 C.ar    1  UNL1        0.0207
     10 C          63.1824   86.8678   16.5081 C.ar    1  UNL1        0.0989
     11 N          62.7268   88.2634   16.8156 N.ar    1  UNL1       -0.2423
     12 C          63.1787   89.4064   15.9556 C.ar    1  UNL1        0.0988
     13 C          61.3838   87.8902   11.2967 C.ar    1  UNL1        0.0230
     14 C          60.4264   88.9430   11.7713 C.ar    1  UNL1        0.0040
     15 C          61.2283   90.0807   12.3302 C.ar    1  UNL1        0.0067
     16 C          62.6813   89.7311   12.2012 C.ar    1  UNL1        0.0307
     17 S          62.7774   88.3774   11.5624 S.2     1  UNL1       -0.0899
     18 N          61.9445   85.4091   10.7677 N.3     1  UNL1       -0.3170
     19 C          61.0128   86.5803   10.6670 C.3     1  UNL1        0.0987
     20 H          61.5361   84.6074   10.2871 H       1  UNL1        0.1192
     21 H          62.0938   85.1769   11.7497 H       1  UNL1        0.1192
@<TRIPOS>BOND
     1    18    19    1
     2    19    13    1
     3    13    14   ar
     4    14    15   ar
     5    15    16   ar
     6    16     1    1
     7     1     2   ar
     8     2     3   ar
     9     3     4   ar
    10     4     5   ar
    11     5     6   ar
    12     6     7    1
    13     7     8   ar
    14     8     9   ar
    15     9    10   ar
    16    10    11   ar
    17    11    12   ar
    18    16    17   ar
    19    17    13   ar
    20     6     1   ar
    21    12     7   ar
    22    18    20    1
    23    18    21    1
@<TRIPOS>MOLECULE
*****
 21 23 0 0 0
SMALL
GASTEIGER

@<TRIPOS>ATOM
      1 C          60.7672   86.7604    8.9582 C.ar    1  UNL1        0.0252
      2 C          60.0708   86.1209    7.7938 C.ar    1  UNL1        0.0993
      3 N          59.1958   86.9464    6.8977 N.ar    1  UNL1       -0.2423
      4 C          59.0174   88.4114    7.1661 C.ar    1  UNL1        0.0989
      5 C          59.7138   89.0508    8.3306 C.ar    1  UNL1        0.0207
      6 C          60.5887   88.2253    9.2267 C.ar    1  UNL1        0.0050
      7 C          61.2852   88.8648   10.3912 C.ar    1  UNL1        0.0193
      8 C          62.7127   89.3068   10.2608 C.ar    1  UNL1        0.0031
      9 C          63.4092   89.9462   11.4252 C.ar    1  UNL1        0.0207
     10 C          62.6783   90.1436   12.7202 C.ar    1  UNL1        0.0989
     11 N          61.2508   89.7015   12.8506 N.ar    1  UNL1       -0.2423
     12 C          60.5543   89.0621   11.6861 C.ar    1  UNL1        0.0988
     13 C          63.3490   84.3951   10.6333 C.ar    1  UNL1        0.0230
     14 C          62.6283   84.9340   11.8335 C.ar    1  UNL1        0.0040
     15 C          61.5734   85.8856   11.3520 C.ar    1  UNL1        0.0067
     16 C          61.6422   85.9348    9.8544 C.ar    1  UNL1        0.0307
     17 S          62.7396   85.0137    9.4102 S.2     1  UNL1       -0.0899
     18 N          64.9337   82.8145   11.9527 N.3     1  UNL1       -0.3170
     19 C          64.4805   83.4106   10.6529 C.3     1  UNL1        0.0987
     20 H          65.7063   82.1712   11.7807 H       1  UNL1        0.1192
     21 H          64.1595   82.3088   12.3831 H       1  UNL1        0.1192
@<TRIPOS>BOND
     1    18    19    1
     2    19    13    1
     3    13    14   ar
     4    14    15   ar
     5    15    16   ar
     6    16     1    1
     7     1     2   ar
     8     2     3   ar
     9     3     4   ar
    10     4     5   ar
    11     5     6   ar
    12     6     7    1
    13     7     8   ar
    14     8     9   ar
    15     9    10   ar
    16    10    11   ar
    17    11    12   ar
    18    16    17   ar
    19    17    13   ar
    20     6     1   ar
    21    12     7   ar
    22    18    20    1
    23    18    21    1
@<TRIPOS>MOLECULE
*****
 21 23 0 0 0
SMALL
GASTEIGER

@<TRIPOS>ATOM
      1 C          63.0461   86.5881   12.2702 C.ar    1  UNL1        0.0252
      2 C          63.2500   87.9471   12.8714 C.ar    1  UNL1        0.0993
      3 N          64.0168   88.0933   14.1522 N.ar    1  UNL1       -0.2423
      4 C          64.5798   86.8804   14.8319 C.ar    1  UNL1        0.0989
      5 C          64.3759   85.5214   14.2308 C.ar    1  UNL1        0.0207
      6 C          63.6091   85.3752   12.9499 C.ar    1  UNL1        0.0050
      7 C          63.4052   84.0161   12.3487 C.ar    1  UNL1        0.0193
      8 C          64.2283   83.5860   11.1708 C.ar    1  UNL1        0.0031
      9 C          64.0245   82.2270   10.5696 C.ar    1  UNL1        0.0207
     10 C          62.9975   81.2980   11.1463 C.ar    1  UNL1        0.0989
     11 N          62.1745   81.7282   12.3242 N.ar    1  UNL1       -0.2423
     12 C          62.3783   83.0873   12.9254 C.ar    1  UNL1        0.0988
     13 C          60.5428   86.6305    9.3042 C.ar    1  UNL1        0.0230
     14 C          61.6557   85.8032    8.7324 C.ar    1  UNL1        0.0040
     15 C          62.7289   85.6866    9.7739 C.ar    1  UNL1        0.0067
     16 C          62.2793   86.4419   10.9893 C.ar    1  UNL1        0.0307
     17 S          60.9282   87.0253   10.6991 S.2     1  UNL1       -0.0899
     18 N          58.8646   86.2767    7.3527 N.3     1  UNL1       -0.3170
     19 C          59.2683   86.9986    8.6041 C.3     1  UNL1        0.0987
     20 H          57.9790   86.6528    7.0139 H       1  UNL1        0.1192
     21 H          58.7573   85.2824    7.5533 H       1  UNL1        0.1192
@<TRIPOS>BOND
     1    18    19    1
     2    19    13    1
     3    13    14   ar
     4    14    15   ar
     5    15    16   ar
     6    16     1    1
     7     1     2   ar
     8     2     3   ar
     9     3     4   ar
    10     4     5   ar
    11     5     6   ar
    12     6     7    1
    13     7     8   ar
    14     8     9   ar
    15     9    10   ar
    16    10    11   ar
    17    11    12   ar
    18    16    17   ar
    19    17    13   ar
    20     6     1   ar
    21    12     7   ar
    22    18    20    1
    23    18    21    1
@<TRIPOS>MOLECULE
*****
 21 23 0 0 0
SMALL
GASTEIGER

@<TRIPOS>ATOM
      1 C          62.8037   86.4439   11.5032 C.ar    1  UNL1        0.0252
      2 C          63.1930   87.2487   12.7077 C.ar    1  UNL1        0.0993
      3 N          63.1145   88.7460   12.6665 N.ar    1  UNL1       -0.2423
      4 C          62.6468   89.4386   11.4209 C.ar    1  UNL1        0.0989
      5 C          62.2576   88.6338   10.2164 C.ar    1  UNL1        0.0207
      6 C          62.3360   87.1365   10.2576 C.ar    1  UNL1        0.0050
      7 C          61.9467   86.3316    9.0531 C.ar    1  UNL1        0.0193
      8 C          62.9971   85.6099    8.2619 C.ar    1  UNL1        0.0031
      9 C          62.6079   84.8051    7.0575 C.ar    1  UNL1        0.0207
     10 C          61.1683   84.7219    6.6442 C.ar    1  UNL1        0.0989
     11 N          60.1180   85.4436    7.4354 N.ar    1  UNL1       -0.2423
     12 C          60.5072   86.2485    8.6399 C.ar    1  UNL1        0.0988
     13 C          62.6314   82.6407   12.2591 C.ar    1  UNL1        0.0230
     14 C          63.3745   82.6438   10.9560 C.ar    1  UNL1        0.0040
     15 C          63.5294   84.0689   10.5143 C.ar    1  UNL1        0.0067
     16 C          62.8822   84.9465   11.5444 C.ar    1  UNL1        0.0307
     17 S          62.3272   84.0638   12.6227 S.2     1  UNL1       -0.0899
     18 N          62.2170   81.4993   14.5560 N.3     1  UNL1       -0.3170
     19 C          62.2581   81.4274   13.0583 C.3     1  UNL1        0.0987
     20 H          61.9465   80.5908   14.9327 H       1  UNL1        0.1192
     21 H          61.5370   82.2029   14.8440 H       1  UNL1        0.1192
@<TRIPOS>BOND
     1    18    19    1
     2    19    13    1
     3    13    14   ar
     4    14    15   ar
     5    15    16   ar
     6    16     1    1
     7     1     2   ar
     8     2     3   ar
     9     3     4   ar
    10     4     5   ar
    11     5     6   ar
    12     6     7    1
    13     7     8   ar
    14     8     9   ar
    15     9    10   ar
    16    10    11   ar
    17    11    12   ar
    18    16    17   ar
    19    17    13   ar
    20     6     1   ar
    21    12     7   ar
    22    18    20    1
    23    18    21    1
@<TRIPOS>MOLECULE
*****
 21 23 0 0 0
SMALL
GASTEIGER

@<TRIPOS>ATOM
      1 C          64.5791   91.7004   12.4649 C.ar    1  UNL1        0.0252
      2 C          63.4984   90.8116   13.0052 C.ar    1  UNL1        0.0993
      3 N          62.4664   90.2383   12.0798 N.ar    1  UNL1       -0.2423
      4 C          62.5151   90.5539   10.6142 C.ar    1  UNL1        0.0989
      5 C          63.5959   91.4427   10.0739 C.ar    1  UNL1        0.0207
      6 C          64.6279   92.0159   10.9993 C.ar    1  UNL1        0.0050
      7 C          65.7087   92.9048   10.4590 C.ar    1  UNL1        0.0193
      8 C          67.0395   92.3237   10.0831 C.ar    1  UNL1        0.0031
      9 C          68.1204   93.2124    9.5428 C.ar    1  UNL1        0.0207
     10 C          67.8704   94.6823    9.3785 C.ar    1  UNL1        0.0989
     11 N          66.5396   95.2634    9.7544 N.ar    1  UNL1       -0.2423
     12 C          65.4588   94.3746   10.2947 C.ar    1  UNL1        0.0988
     13 C          67.2629   92.4910   15.1552 C.ar    1  UNL1        0.0230
     14 C          67.1358   93.8209   14.4730 C.ar    1  UNL1        0.0040
     15 C          66.1150   93.6866   13.3822 C.ar    1  UNL1        0.0067
     16 C          65.6112   92.2737   13.3902 C.ar    1  UNL1        0.0307
     17 S          66.3206   91.5349   14.4860 S.2     1  UNL1       -0.0899
     18 N          69.6602   92.2322   16.1226 N.3     1  UNL1       -0.3170
     19 C          68.1725   92.1732   16.3048 C.3     1  UNL1        0.0987
     20 H          70.1201   91.9885   16.9998 H       1  UNL1        0.1192
     21 H          69.9319   93.1760   15.8471 H       1  UNL1        0.1192
@<TRIPOS>BOND
     1    18    19    1
     2    19    13    1
     3    13    14   ar
     4    14    15   ar
     5    15    16   ar
     6    16     1    1
     7     1     2   ar
     8     2     3   ar
     9     3     4   ar
    10     4     5   ar
    11     5     6   ar
    12     6     7    1
    13     7     8   ar
    14     8     9   ar
    15     9    10   ar
    16    10    11   ar
    17    11    12   ar
    18    16    17   ar
    19    17    13   ar
    20     6     1   ar
    21    12     7   ar
    22    18    20    1
    23    18    21    1
@<TRIPOS>MOLECULE
*****
 21 23 0 0 0
SMALL
GASTEIGER

@<TRIPOS>ATOM
      1 C          63.3760   82.5754   13.7830 C.ar    1  UNL1        0.0252
      2 C          63.5530   81.2960   14.5457 C.ar    1  UNL1        0.0993
      3 N          63.2220   79.9844   13.8974 N.ar    1  UNL1       -0.2423
      4 C          62.7140   79.9523   12.4864 C.ar    1  UNL1        0.0989
      5 C          62.5370   81.2317   11.7237 C.ar    1  UNL1        0.0207
      6 C          62.8680   82.5432   12.3720 C.ar    1  UNL1        0.0050
      7 C          62.6910   83.8227   11.6093 C.ar    1  UNL1        0.0193
      8 C          63.2488   83.9527   10.2229 C.ar    1  UNL1        0.0031
      9 C          63.0718   85.2321    9.4602 C.ar    1  UNL1        0.0207
     10 C          62.3371   86.3816   10.0838 C.ar    1  UNL1        0.0989
     11 N          61.7793   86.2516   11.4702 N.ar    1  UNL1       -0.2423
     12 C          61.9563   84.9721   12.2329 C.ar    1  UNL1        0.0988
     13 C          63.6305   85.8252   15.8899 C.ar    1  UNL1        0.0230
     14 C          64.8025   85.9853   14.9675 C.ar    1  UNL1        0.0040
     15 C          64.8498   84.7874   14.0660 C.ar    1  UNL1        0.0067
     16 C          63.7070   83.8870   14.4312 C.ar    1  UNL1        0.0307
     17 S          62.9535   84.5284   15.5585 S.2     1  UNL1       -0.0899
     18 N          62.1102   86.4262   17.9093 N.3     1  UNL1       -0.3170
     19 C          63.2094   86.7922   16.9565 C.3     1  UNL1        0.0987
     20 H          61.9562   87.1946   18.5622 H       1  UNL1        0.1192
     21 H          62.3742   85.5879   18.4270 H       1  UNL1        0.1192
@<TRIPOS>BOND
     1    18    19    1
     2    19    13    1
     3    13    14   ar
     4    14    15   ar
     5    15    16   ar
     6    16     1    1
     7     1     2   ar
     8     2     3   ar
     9     3     4   ar
    10     4     5   ar
    11     5     6   ar
    12     6     7    1
    13     7     8   ar
    14     8     9   ar
    15     9    10   ar
    16    10    11   ar
    17    11    12   ar
    18    16    17   ar
    19    17    13   ar
    20     6     1   ar
    21    12     7   ar
    22    18    20    1
    23    18    21    1
