@<TRIPOS>MOLECULE
*****
 37 41 0 0 0
SMALL
GASTEIGER

@<TRIPOS>ATOM
      1 C          63.5589   88.8539   12.5627 C.ar    1  UNL1        0.1633
      2 N          63.7566   87.4772   13.1243 N.ar    1  UNL1       -0.2294
      3 C          63.0637   86.3043   12.4963 C.ar    1  UNL1        0.0795
      4 C          62.1731   86.5083   11.3067 C.ar    1  UNL1        0.0264
      5 C          61.9754   87.8851   10.7451 C.ar    1  UNL1        0.1306
      6 N          62.6683   89.0579   11.3731 N.ar    1  UNL1       -0.2122
      7 C          61.4802   85.3355   10.6786 C.3     1  UNL1        0.0519
      8 C          61.6780   83.9588   11.2402 C.3     1  UNL1        0.0987
      9 N          62.5686   83.7548   12.4298 N.pl3   1  UNL1       -0.2735
     10 C          63.2615   84.9276   13.0578 C.3     1  UNL1        0.1392
     11 N          61.0847   88.0891    9.5555 N.pl3   1  UNL1       -0.2900
     12 C          60.9282   86.9966    8.5397 C.3     1  UNL1        0.1242
     13 C          60.0376   87.2006    7.3501 C.3     1  UNL1        0.1636
     14 O          59.3035   88.4970    7.1762 O.3     1  UNL1       -0.3502
     15 C          59.4600   89.5896    8.1921 C.3     1  UNL1        0.1618
     16 C          60.3506   89.3856    9.3817 C.3     1  UNL1        0.1038
     17 C          60.5072   90.4781   10.3975 C.3     1  UNL1        0.0241
     18 C          65.6375   92.3724   14.4468 C.ar    1  UNL1        0.0516
     19 C          65.2209   91.2061   15.2931 C.ar    1  UNL1        0.0148
     20 C          64.5281   90.0333   14.6650 C.ar    1  UNL1        0.0043
     21 C          64.2518   90.0268   13.1907 C.ar    1  UNL1        0.0359
     22 C          64.6683   91.1931   12.3444 C.ar    1  UNL1        0.0043
     23 C          65.3612   92.3659   12.9725 C.ar    1  UNL1        0.0148
     24 N          68.4744   94.6230   16.0707 N.am    1  UNL1       -0.2887
     25 C          67.7815   93.4502   15.4427 C.2     1  UNL1        0.3045
     26 O          68.5396   92.1823   15.1826 O.2     1  UNL1       -0.2525
     27 N          66.3304   93.5453   15.0748 N.am    1  UNL1       -0.2683
     28 H          67.9768   95.4551   16.2414 H       1  UNL1        0.1510
     29 H          65.8328   94.3774   15.2455 H       1  UNL1        0.1564
     30 C          70.9792   94.7064   15.3862 C.3     1  UNL1        0.0230
     31 C          69.9254   94.5279   16.4386 C.3     1  UNL1        0.0910
     32 C          62.7664   82.3780   12.9914 C.ar    1  UNL1        0.2016
     33 N          62.7197   82.0028   14.4430 N.ar    1  UNL1       -0.2119
     34 C          62.9700   80.5276   14.5488 C.ar    1  UNL1        0.1205
     35 C          63.1713   79.9911   13.1625 C.ar    1  UNL1        0.0990
     36 N          63.0454   81.1347   12.2000 N.ar    1  UNL1       -0.2963
     37 C          63.1758   81.0498   10.7081 C.3     1  UNL1        0.1333
@<TRIPOS>BOND
     1    30    31    1
     2    31    24    1
     3    24    25   am
     4    25    26    2
     5    25    27   am
     6    27    18    1
     7    18    19   ar
     8    19    20   ar
     9    20    21   ar
    10    21     1    1
    11     1     2   ar
    12     2     3   ar
    13     3     4   ar
    14     4     5   ar
    15     5    11    1
    16    11    12    1
    17    12    13    1
    18    13    14    1
    19    14    15    1
    20    15    16    1
    21    16    17    1
    22     5     6   ar
    23     4     7    1
    24     7     8    1
    25     8     9    1
    26     9    32    1
    27    32    33   ar
    28    33    34   ar
    29    34    35   ar
    30    35    36   ar
    31    36    37    1
    32     9    10    1
    33    21    22   ar
    34    22    23   ar
    35    23    18   ar
    36     6     1   ar
    37    36    32   ar
    38    10     3    1
    39    16    11    1
    40    24    28    1
    41    27    29    1
@<TRIPOS>MOLECULE
*****
 37 41 0 0 0
SMALL
GASTEIGER

@<TRIPOS>ATOM
      1 C          62.9240   89.3553   11.7840 C.ar    1  UNL1        0.1633
      2 N          62.0276   90.0106   10.7755 N.ar    1  UNL1       -0.2294
      3 C          61.2935   89.1746    9.7693 C.ar    1  UNL1        0.0795
      4 C          61.4560   87.6835    9.7715 C.ar    1  UNL1        0.0264
      5 C          62.3525   87.0282   10.7800 C.ar    1  UNL1        0.1306
      6 N          63.0865   87.8642   11.7862 N.ar    1  UNL1       -0.2122
      7 C          60.7220   86.8475    8.7654 C.3     1  UNL1        0.0519
      8 C          59.8255   87.5028    7.7569 C.3     1  UNL1        0.0987
      9 N          59.6631   88.9940    7.7547 N.pl3   1  UNL1       -0.2735
     10 C          60.3971   89.8299    8.7608 C.3     1  UNL1        0.1392
     11 N          62.5150   85.5371   10.7823 N.pl3   1  UNL1       -0.2900
     12 C          62.1570   84.7455   12.0050 C.3     1  UNL1        0.1242
     13 C          62.3194   83.2543   12.0073 C.3     1  UNL1        0.1636
     14 O          62.8399   82.5547   10.7868 O.3     1  UNL1       -0.3502
     15 C          63.1979   83.3463    9.5639 C.3     1  UNL1        0.1618
     16 C          63.0354   84.8375    9.5617 C.3     1  UNL1        0.1038
     17 C          63.3934   85.6291    8.3389 C.3     1  UNL1        0.0241
     18 C          65.1261   91.8631   14.8025 C.ar    1  UNL1        0.0516
     19 C          65.1216   92.2618   13.3565 C.ar    1  UNL1        0.0148
     20 C          64.3876   91.4259   12.3504 C.ar    1  UNL1        0.0043
     21 C          63.6581   90.1913   12.7902 C.ar    1  UNL1        0.0359
     22 C          63.6625   89.7926   14.2362 C.ar    1  UNL1        0.0043
     23 C          64.3965   90.6285   15.2424 C.ar    1  UNL1        0.0148
     24 N          67.9296   94.1242   16.4693 N.am    1  UNL1       -0.2887
     25 C          67.1955   93.2883   15.4631 C.2     1  UNL1        0.3045
     26 O          67.7969   93.0417   14.1112 O.2     1  UNL1       -0.2525
     27 N          65.8602   92.6990   15.8088 N.am    1  UNL1       -0.2683
     28 H          67.5349   94.2861   17.3565 H       1  UNL1        0.1510
     29 H          65.4655   92.8609   16.6961 H       1  UNL1        0.1564
     30 C          70.4070   93.8156   15.7501 C.3     1  UNL1        0.0230
     31 C          69.2650   94.7135   16.1236 C.3     1  UNL1        0.0910
     32 C          58.7666   89.6492    6.7462 C.ar    1  UNL1        0.2016
     33 N          57.2713   89.5419    6.6943 N.ar    1  UNL1       -0.2119
     34 C          56.7885   90.3531    5.5286 C.ar    1  UNL1        0.1205
     35 C          57.9854   90.9618    4.8600 C.ar    1  UNL1        0.0990
     36 N          59.2079   90.5267    5.6126 N.ar    1  UNL1       -0.2963
     37 C          60.6232   90.9032    5.2883 C.3     1  UNL1        0.1333
@<TRIPOS>BOND
     1    30    31    1
     2    31    24    1
     3    24    25   am
     4    25    26    2
     5    25    27   am
     6    27    18    1
     7    18    19   ar
     8    19    20   ar
     9    20    21   ar
    10    21     1    1
    11     1     2   ar
    12     2     3   ar
    13     3     4   ar
    14     4     5   ar
    15     5    11    1
    16    11    12    1
    17    12    13    1
    18    13    14    1
    19    14    15    1
    20    15    16    1
    21    16    17    1
    22     5     6   ar
    23     4     7    1
    24     7     8    1
    25     8     9    1
    26     9    32    1
    27    32    33   ar
    28    33    34   ar
    29    34    35   ar
    30    35    36   ar
    31    36    37    1
    32     9    10    1
    33    21    22   ar
    34    22    23   ar
    35    23    18   ar
    36     6     1   ar
    37    36    32   ar
    38    10     3    1
    39    16    11    1
    40    24    28    1
    41    27    29    1
@<TRIPOS>MOLECULE
*****
 37 41 0 0 0
SMALL
GASTEIGER

@<TRIPOS>ATOM
      1 C          61.4188   87.8822   10.0292 C.ar    1  UNL1        0.1633
      2 N          61.3527   86.3986   10.2404 N.ar    1  UNL1       -0.2294
      3 C          62.0654   85.7741   11.4033 C.ar    1  UNL1        0.0795
      4 C          62.8442   86.6332   12.3548 C.ar    1  UNL1        0.0264
      5 C          62.9102   88.1169   12.1436 C.ar    1  UNL1        0.1306
      6 N          62.1976   88.7413   10.9808 N.ar    1  UNL1       -0.2122
      7 C          63.5569   86.0088   13.5176 C.3     1  UNL1        0.0519
      8 C          63.4908   84.5253   13.7289 C.3     1  UNL1        0.0987
      9 N          62.7120   83.6661   12.7773 N.pl3   1  UNL1       -0.2735
     10 C          61.9994   84.2906   11.6145 C.3     1  UNL1        0.1392
     11 N          63.6890   88.9760   13.0951 N.pl3   1  UNL1       -0.2900
     12 C          64.1357   88.4193   14.4144 C.3     1  UNL1        0.1242
     13 C          64.9145   89.2784   15.3659 C.3     1  UNL1        0.1636
     14 O          65.2465   90.6942   14.9982 O.3     1  UNL1       -0.3502
     15 C          64.7997   91.2510   13.6789 C.3     1  UNL1        0.1618
     16 C          64.0210   90.3919   12.7274 C.3     1  UNL1        0.1038
     17 C          63.5742   90.9485   11.4081 C.3     1  UNL1        0.0241
     18 C          59.2808   89.7557    6.5408 C.ar    1  UNL1        0.0516
     19 C          59.9384   90.6244    7.5718 C.ar    1  UNL1        0.0148
     20 C          60.6511   89.9999    8.7346 C.ar    1  UNL1        0.0043
     21 C          60.7061   88.5067    8.8664 C.ar    1  UNL1        0.0359
     22 C          60.0485   87.6380    7.8354 C.ar    1  UNL1        0.0043
     23 C          59.3359   88.2625    6.6726 C.ar    1  UNL1        0.0148
     24 N          58.5767   91.9742    3.3264 N.am    1  UNL1       -0.2887
     25 C          59.2894   91.3497    4.4891 C.2     1  UNL1        0.3045
     26 O          60.7233   91.6946    4.7632 O.2     1  UNL1       -0.2525
     27 N          58.5681   90.3802    5.3780 N.am    1  UNL1       -0.2683
     28 H          57.6357   91.7478    3.1465 H       1  UNL1        0.1510
     29 H          57.6271   90.1538    5.1982 H       1  UNL1        0.1564
     30 C          59.2794   92.7538    0.9497 C.3     1  UNL1        0.0230
     31 C          59.2980   92.9436    2.4375 C.3     1  UNL1        0.0910
     32 C          62.6460   82.1825   12.9886 C.ar    1  UNL1        0.2016
     33 N          62.2799   81.4895   14.2676 N.ar    1  UNL1       -0.2119
     34 C          62.3421   80.0102   14.0275 C.ar    1  UNL1        0.1205
     35 C          62.7466   79.7889   12.6001 C.ar    1  UNL1        0.0990
     36 N          62.9344   81.1315   11.9581 N.ar    1  UNL1       -0.2963
     37 C          63.3395   81.3794   10.5352 C.3     1  UNL1        0.1333
@<TRIPOS>BOND
     1    30    31    1
     2    31    24    1
     3    24    25   am
     4    25    26    2
     5    25    27   am
     6    27    18    1
     7    18    19   ar
     8    19    20   ar
     9    20    21   ar
    10    21     1    1
    11     1     2   ar
    12     2     3   ar
    13     3     4   ar
    14     4     5   ar
    15     5    11    1
    16    11    12    1
    17    12    13    1
    18    13    14    1
    19    14    15    1
    20    15    16    1
    21    16    17    1
    22     5     6   ar
    23     4     7    1
    24     7     8    1
    25     8     9    1
    26     9    32    1
    27    32    33   ar
    28    33    34   ar
    29    34    35   ar
    30    35    36   ar
    31    36    37    1
    32     9    10    1
    33    21    22   ar
    34    22    23   ar
    35    23    18   ar
    36     6     1   ar
    37    36    32   ar
    38    10     3    1
    39    16    11    1
    40    24    28    1
    41    27    29    1
@<TRIPOS>MOLECULE
*****
 37 41 0 0 0
SMALL
GASTEIGER

@<TRIPOS>ATOM
      1 C          62.5164   85.4641   11.5917 C.ar    1  UNL1        0.1633
      2 N          63.2584   86.3452   12.5525 N.ar    1  UNL1       -0.2294
      3 C          63.1714   87.8371   12.4226 C.ar    1  UNL1        0.0795
      4 C          62.3423   88.4478   11.3319 C.ar    1  UNL1        0.0264
      5 C          61.6003   87.5667   10.3711 C.ar    1  UNL1        0.1306
      6 N          61.6874   86.0749   10.5010 N.ar    1  UNL1       -0.2122
      7 C          62.2553   89.9396   11.2019 C.3     1  UNL1        0.0519
      8 C          62.9973   90.8206   12.1627 C.3     1  UNL1        0.0987
      9 N          63.8263   90.2099   13.2534 N.pl3   1  UNL1       -0.2735
     10 C          63.9134   88.7181   13.3834 C.3     1  UNL1        0.1392
     11 N          60.7713   88.1774    9.2803 N.pl3   1  UNL1       -0.2900
     12 C          60.4105   89.6322    9.3377 C.3     1  UNL1        0.1242
     13 C          59.5815   90.2429    8.2470 C.3     1  UNL1        0.1636
     14 O          59.1132   89.3989    7.0989 O.3     1  UNL1       -0.3502
     15 C          59.4739   87.9440    7.0415 C.3     1  UNL1        0.1618
     16 C          60.3030   87.3332    8.1322 C.3     1  UNL1        0.1038
     17 C          60.6637   85.8784    8.0748 C.3     1  UNL1        0.0241
     18 C          62.7774   80.9887   11.9816 C.ar    1  UNL1        0.0516
     19 C          62.2208   81.8084   13.1077 C.ar    1  UNL1        0.0148
     20 C          62.1338   83.3002   12.9778 C.ar    1  UNL1        0.0043
     21 C          62.6034   83.9722   11.7217 C.ar    1  UNL1        0.0359
     22 C          63.1600   83.1525   10.5955 C.ar    1  UNL1        0.0043
     23 C          63.2470   81.6607   10.7255 C.ar    1  UNL1        0.0148
     24 N          63.1113   77.1536   11.0168 N.am    1  UNL1       -0.2887
     25 C          63.0242   78.6454   10.8869 C.2     1  UNL1        0.3045
     26 O          63.0970   79.2859    9.5324 O.2     1  UNL1       -0.2525
     27 N          62.8644   79.4968   12.1115 N.am    1  UNL1       -0.2683
     28 H          63.0635   76.7332   11.9058 H       1  UNL1        0.1510
     29 H          62.8167   79.0765   13.0005 H       1  UNL1        0.1564
     30 C          64.6021   76.2178    9.1059 C.3     1  UNL1        0.0230
     31 C          63.2711   76.3022    9.7922 C.3     1  UNL1        0.0910
     32 C          64.5683   91.0910   14.2142 C.ar    1  UNL1        0.2016
     33 N          64.2547   91.2683   15.6703 N.ar    1  UNL1       -0.2119
     34 C          65.2468   92.2364   16.2437 C.ar    1  UNL1        0.1205
     35 C          66.1735   92.6574   15.1418 C.ar    1  UNL1        0.0990
     36 N          65.7542   91.9496   13.8876 N.ar    1  UNL1       -0.2963
     37 C          66.4063   92.0778   12.5429 C.3     1  UNL1        0.1333
@<TRIPOS>BOND
     1    30    31    1
     2    31    24    1
     3    24    25   am
     4    25    26    2
     5    25    27   am
     6    27    18    1
     7    18    19   ar
     8    19    20   ar
     9    20    21   ar
    10    21     1    1
    11     1     2   ar
    12     2     3   ar
    13     3     4   ar
    14     4     5   ar
    15     5    11    1
    16    11    12    1
    17    12    13    1
    18    13    14    1
    19    14    15    1
    20    15    16    1
    21    16    17    1
    22     5     6   ar
    23     4     7    1
    24     7     8    1
    25     8     9    1
    26     9    32    1
    27    32    33   ar
    28    33    34   ar
    29    34    35   ar
    30    35    36   ar
    31    36    37    1
    32     9    10    1
    33    21    22   ar
    34    22    23   ar
    35    23    18   ar
    36     6     1   ar
    37    36    32   ar
    38    10     3    1
    39    16    11    1
    40    24    28    1
    41    27    29    1
@<TRIPOS>MOLECULE
*****
 37 41 0 0 0
SMALL
GASTEIGER

@<TRIPOS>ATOM
      1 C          61.7369   88.3632   10.4976 C.ar    1  UNL1        0.1633
      2 N          61.8135   86.8823   10.7235 N.ar    1  UNL1       -0.2294
      3 C          62.5684   86.3413   11.9014 C.ar    1  UNL1        0.0795
      4 C          63.2467   87.2813   12.8534 C.ar    1  UNL1        0.0264
      5 C          63.1701   88.7622   12.6275 C.ar    1  UNL1        0.1306
      6 N          62.4152   89.3032   11.4497 N.ar    1  UNL1       -0.2122
      7 C          64.0017   86.7403   14.0313 C.3     1  UNL1        0.0519
      8 C          64.0782   85.2594   14.2571 C.3     1  UNL1        0.0987
      9 N          63.3999   84.3195   13.3051 N.pl3   1  UNL1       -0.2735
     10 C          62.6450   84.8604   12.1272 C.3     1  UNL1        0.1392
     11 N          63.8485   89.7022   13.5796 N.pl3   1  UNL1       -0.2900
     12 C          65.0885   90.4325   13.1567 C.3     1  UNL1        0.1242
     13 C          65.7668   91.3725   14.1087 C.3     1  UNL1        0.1636
     14 O          65.2051   91.5821   15.4837 O.3     1  UNL1       -0.3502
     15 C          63.9650   90.8517   15.9066 C.3     1  UNL1        0.1618
     16 C          63.2867   89.9118   14.9546 C.3     1  UNL1        0.1038
     17 C          62.0467   89.1814   15.3775 C.3     1  UNL1        0.0241
     18 C          59.4722   89.9863    6.9640 C.ar    1  UNL1        0.0516
     19 C          60.3346   90.8983    7.7852 C.ar    1  UNL1        0.0148
     20 C          61.0895   90.3573    8.9631 C.ar    1  UNL1        0.0043
     21 C          60.9819   88.9042    9.3197 C.ar    1  UNL1        0.0359
     22 C          60.1195   87.9923    8.4985 C.ar    1  UNL1        0.0043
     23 C          59.3646   88.5333    7.3207 C.ar    1  UNL1        0.0148
     24 N          58.6870   91.8311    3.5391 N.am    1  UNL1       -0.2887
     25 C          59.4418   91.2901    4.7169 C.2     1  UNL1        0.3045
     26 O          60.9214   91.5118    4.8257 O.2     1  UNL1       -0.2525
     27 N          58.7172   90.5273    5.7861 N.am    1  UNL1       -0.2683
     28 H          57.7159   91.6856    3.4677 H       1  UNL1        0.1510
     29 H          57.7462   90.3818    5.7147 H       1  UNL1        0.1564
     30 C          60.2102   93.8120    2.8280 C.3     1  UNL1        0.0230
     31 C          59.4116   92.5939    2.4699 C.3     1  UNL1        0.0910
     32 C          63.4765   82.8385   13.5310 C.ar    1  UNL1        0.2016
     33 N          63.4643   82.1479   14.8625 N.ar    1  UNL1       -0.2119
     34 C          63.5590   80.6708   14.6196 C.ar    1  UNL1        0.1205
     35 C          63.6299   80.4485   13.1378 C.ar    1  UNL1        0.0990
     36 N          63.5789   81.7882   12.4651 N.ar    1  UNL1       -0.2963
     37 C          63.6226   82.0343   10.9860 C.3     1  UNL1        0.1333
@<TRIPOS>BOND
     1    30    31    1
     2    31    24    1
     3    24    25   am
     4    25    26    2
     5    25    27   am
     6    27    18    1
     7    18    19   ar
     8    19    20   ar
     9    20    21   ar
    10    21     1    1
    11     1     2   ar
    12     2     3   ar
    13     3     4   ar
    14     4     5   ar
    15     5    11    1
    16    11    12    1
    17    12    13    1
    18    13    14    1
    19    14    15    1
    20    15    16    1
    21    16    17    1
    22     5     6   ar
    23     4     7    1
    24     7     8    1
    25     8     9    1
    26     9    32    1
    27    32    33   ar
    28    33    34   ar
    29    34    35   ar
    30    35    36   ar
    31    36    37    1
    32     9    10    1
    33    21    22   ar
    34    22    23   ar
    35    23    18   ar
    36     6     1   ar
    37    36    32   ar
    38    10     3    1
    39    16    11    1
    40    24    28    1
    41    27    29    1
@<TRIPOS>MOLECULE
*****
 37 41 0 0 0
SMALL
GASTEIGER

@<TRIPOS>ATOM
      1 C          62.9312   86.0462   12.5365 C.ar    1  UNL1        0.1633
      2 N          63.9136   86.8074   13.3763 N.ar    1  UNL1       -0.2294
      3 C          63.9657   88.3045   13.2980 C.ar    1  UNL1        0.0795
      4 C          63.0353   89.0403   12.3798 C.ar    1  UNL1        0.0264
      5 C          62.0528   88.2790   11.5400 C.ar    1  UNL1        0.1306
      6 N          62.0008   86.7820   11.6184 N.ar    1  UNL1       -0.2122
      7 C          63.0874   90.5373   12.3015 C.3     1  UNL1        0.0519
      8 C          64.0699   91.2985   13.1413 C.3     1  UNL1        0.0987
      9 N          65.0003   90.5627   14.0594 N.pl3   1  UNL1       -0.2735
     10 C          64.9482   89.0657   14.1377 C.3     1  UNL1        0.1392
     11 N          61.1224   89.0148   10.6219 N.pl3   1  UNL1       -0.2900
     12 C          61.3628   89.0004    9.1414 C.3     1  UNL1        0.1242
     13 C          60.4325   89.7362    8.2233 C.3     1  UNL1        0.1636
     14 O          59.2616   90.4864    8.7857 O.3     1  UNL1       -0.3502
     15 C          59.0212   90.5009   10.2662 C.3     1  UNL1        0.1618
     16 C          59.9516   89.7651   11.1844 C.3     1  UNL1        0.1038
     17 C          59.7112   89.7795   12.6649 C.3     1  UNL1        0.0241
     18 C          62.7748   81.5551   12.7715 C.ar    1  UNL1        0.0516
     19 C          62.5030   82.3800   13.9944 C.ar    1  UNL1        0.0148
     20 C          62.5551   83.8770   13.9161 C.ar    1  UNL1        0.0043
     21 C          62.8791   84.5491   12.6148 C.ar    1  UNL1        0.0359
     22 C          63.1509   83.7242   11.3919 C.ar    1  UNL1        0.0043
     23 C          63.0988   82.2272   11.4702 C.ar    1  UNL1        0.0148
     24 N          62.7406   77.7414   11.6737 N.am    1  UNL1       -0.2887
     25 C          62.7927   79.2384   11.5954 C.2     1  UNL1        0.3045
     26 O          62.9148   79.9160   10.2627 O.2     1  UNL1       -0.2525
     27 N          62.7227   80.0580   12.8498 N.am    1  UNL1       -0.2683
     28 H          62.6605   77.2967   12.5484 H       1  UNL1        0.1510
     29 H          62.6426   79.6133   13.7245 H       1  UNL1        0.1564
     30 C          64.1353   76.6649    9.7643 C.3     1  UNL1        0.0230
     31 C          62.8106   76.9219   10.4193 C.3     1  UNL1        0.0910
     32 C          65.9828   91.3240   14.8992 C.ar    1  UNL1        0.2016
     33 N          67.4591   91.4263   14.6541 N.ar    1  UNL1       -0.2119
     34 C          68.0502   92.2822   15.7349 C.ar    1  UNL1        0.1205
     35 C          66.9392   92.7087   16.6480 C.ar    1  UNL1        0.0990
     36 N          65.6615   92.1165   16.1315 N.ar    1  UNL1       -0.2963
     37 C          64.3013   92.2870   16.7405 C.3     1  UNL1        0.1333
@<TRIPOS>BOND
     1    30    31    1
     2    31    24    1
     3    24    25   am
     4    25    26    2
     5    25    27   am
     6    27    18    1
     7    18    19   ar
     8    19    20   ar
     9    20    21   ar
    10    21     1    1
    11     1     2   ar
    12     2     3   ar
    13     3     4   ar
    14     4     5   ar
    15     5    11    1
    16    11    12    1
    17    12    13    1
    18    13    14    1
    19    14    15    1
    20    15    16    1
    21    16    17    1
    22     5     6   ar
    23     4     7    1
    24     7     8    1
    25     8     9    1
    26     9    32    1
    27    32    33   ar
    28    33    34   ar
    29    34    35   ar
    30    35    36   ar
    31    36    37    1
    32     9    10    1
    33    21    22   ar
    34    22    23   ar
    35    23    18   ar
    36     6     1   ar
    37    36    32   ar
    38    10     3    1
    39    16    11    1
    40    24    28    1
    41    27    29    1
