@<TRIPOS>MOLECULE
*****
 32 34 0 0 0
SMALL
GASTEIGER

@<TRIPOS>ATOM
      1 N          62.4506   90.5940   11.2720 N.am    1  UNL1       -0.2438
      2 C          63.0122   91.4043   10.1415 C.3     1  UNL1        0.1009
      3 C          64.3291   92.1041   10.3022 C.3     1  UNL1        0.0661
      4 C          65.0845   91.9937   11.5934 C.3     1  UNL1        0.1582
      5 O          64.5229   91.1834   12.7240 O.3     1  UNL1       -0.4375
      6 C          63.2059   90.4836   12.5633 C.2     1  UNL1        0.4051
      7 O          62.6443   89.6734   13.6938 O.2     1  UNL1       -0.2262
      8 C          66.0215   92.8715   10.8177 C.ar    1  UNL1        0.0137
      9 C          65.7396   94.3390   10.6876 C.ar    1  UNL1       -0.0010
     10 C          66.6766   95.2168    9.9120 C.ar    1  UNL1       -0.0002
     11 C          67.8953   94.6270    9.2664 C.ar    1  UNL1       -0.0000
     12 C          68.1772   93.1595    9.3965 C.ar    1  UNL1       -0.0002
     13 C          67.2402   92.2817   10.1722 C.ar    1  UNL1       -0.0010
     14 C          59.9442   90.3420   11.9080 C.3     1  UNL1        0.0265
     15 C          61.1336   89.8942   11.1114 C.3     1  UNL1        0.1011
     16 C          61.0061   88.7464   10.1540 C.ar    1  UNL1       -0.0040
     17 C          60.1270   88.8722    8.9451 C.ar    1  UNL1        0.0004
     18 C          59.9995   87.7245    7.9879 C.ar    1  UNL1        0.0368
     19 C          60.7511   86.4510    8.2394 C.ar    1  UNL1        0.1443
     20 C          61.6302   86.3252    9.4482 C.ar    1  UNL1        0.0368
     21 C          61.7577   87.4729   10.4055 C.ar    1  UNL1        0.0004
     22 O          60.6236   85.3033    7.2820 O.3     1  UNL1       -0.4236
     23 C          61.8440   84.7493    6.6084 C.3     1  UNL1        0.5087
     24 F          61.7276   84.1004    5.2610 F       1  UNL1       -0.1550
     25 F          63.1808   84.8444    7.2821 F       1  UNL1       -0.1550
     26 C          66.1653   92.1881   12.6152 C.3     1  UNL1        0.0541
     27 C          65.8051   92.4331   14.0505 C.3     1  UNL1        0.0887
     28 C          66.8638   92.8465   15.0295 C.2     1  UNL1        0.2195
     29 N          66.5137   93.0415   16.4749 N.am    1  UNL1       -0.3288
     30 O          68.2726   93.0649   14.5629 O.2     1  UNL1       -0.2753
     31 H          65.5891   92.8982   16.7811 H       1  UNL1        0.1449
     32 H          67.2085   93.3129   17.1174 H       1  UNL1        0.1449
@<TRIPOS>BOND
     1    15    14    1
     2    15    16    1
     3    16    17   ar
     4    17    18   ar
     5    18    19   ar
     6    19    22    1
     7    22    23    1
     8    23    24    1
     9    23    25    1
    10    19    20   ar
    11    20    21   ar
    12    15     1    1
    13     1     2    1
    14     2     3    1
    15     3     4    1
    16     4    26    1
    17    26    27    1
    18    27    28    1
    19    28    29   am
    20    28    30    2
    21     4     8    1
    22     8     9   ar
    23     9    10   ar
    24    10    11   ar
    25    11    12   ar
    26    12    13   ar
    27     4     5    1
    28     5     6    1
    29     6     7    2
    30    21    16   ar
    31     6     1   am
    32    13     8   ar
    33    29    31    1
    34    29    32    1
@<TRIPOS>MOLECULE
*****
 32 34 0 0 0
SMALL
GASTEIGER

@<TRIPOS>ATOM
      1 N          62.8850   90.3343   11.6369 N.am    1  UNL1       -0.2438
      2 C          63.4796   90.9914   10.4266 C.3     1  UNL1        0.1009
      3 C          64.5812   91.9972   10.5843 C.3     1  UNL1        0.0661
      4 C          65.0881   92.3460   11.9523 C.3     1  UNL1        0.1582
      5 O          64.4935   91.6890   13.1626 O.3     1  UNL1       -0.4375
      6 C          63.3919   90.6832   13.0049 C.2     1  UNL1        0.4051
      7 O          62.7973   90.0261   14.2151 O.2     1  UNL1       -0.2262
      8 C          65.9645   93.2309   11.1162 C.ar    1  UNL1        0.0137
      9 C          65.8069   94.7211   11.1826 C.ar    1  UNL1       -0.0010
     10 C          66.6833   95.6060   10.3466 C.ar    1  UNL1       -0.0002
     11 C          67.7173   95.0006    9.4442 C.ar    1  UNL1       -0.0000
     12 C          67.8749   93.5104    9.3778 C.ar    1  UNL1       -0.0002
     13 C          66.9985   92.6255   10.2138 C.ar    1  UNL1       -0.0010
     14 C          60.3737   89.6983   11.8340 C.3     1  UNL1        0.0265
     15 C          61.7834   89.3285   11.4792 C.3     1  UNL1        0.1011
     16 C          62.0916   87.9528   10.9667 C.ar    1  UNL1       -0.0040
     17 C          62.4462   86.8566   11.9272 C.ar    1  UNL1        0.0004
     18 C          62.7544   85.4811   11.4147 C.ar    1  UNL1        0.0368
     19 C          62.7080   85.2017    9.9417 C.ar    1  UNL1        0.1443
     20 C          62.3534   86.2978    8.9812 C.ar    1  UNL1        0.0368
     21 C          62.0453   87.6734    9.4937 C.ar    1  UNL1        0.0004
     22 O          63.0162   83.8260    9.4292 O.3     1  UNL1       -0.4236
     23 C          63.8422   82.8854   10.2556 C.3     1  UNL1        0.5087
     24 F          65.0679   83.3854   10.9611 F       1  UNL1       -0.1550
     25 F          63.4426   81.4446   10.3765 F       1  UNL1       -0.1550
     26 C          65.8995   93.0021   13.0299 C.3     1  UNL1        0.0541
     27 C          66.7219   92.1652   13.9642 C.3     1  UNL1        0.0887
     28 C          68.2163   92.2955   13.9696 C.2     1  UNL1        0.2195
     29 N          69.0349   91.5824   12.9345 N.am    1  UNL1       -0.3288
     30 O          68.8919   93.1388   15.0099 O.2     1  UNL1       -0.2753
     31 H          68.5914   91.0289   12.2517 H       1  UNL1        0.1449
     32 H          70.0157   91.6678   12.9380 H       1  UNL1        0.1449
@<TRIPOS>BOND
     1    15    14    1
     2    15    16    1
     3    16    17   ar
     4    17    18   ar
     5    18    19   ar
     6    19    22    1
     7    22    23    1
     8    23    24    1
     9    23    25    1
    10    19    20   ar
    11    20    21   ar
    12    15     1    1
    13     1     2    1
    14     2     3    1
    15     3     4    1
    16     4    26    1
    17    26    27    1
    18    27    28    1
    19    28    29   am
    20    28    30    2
    21     4     8    1
    22     8     9   ar
    23     9    10   ar
    24    10    11   ar
    25    11    12   ar
    26    12    13   ar
    27     4     5    1
    28     5     6    1
    29     6     7    2
    30    21    16   ar
    31     6     1   am
    32    13     8   ar
    33    29    31    1
    34    29    32    1
@<TRIPOS>MOLECULE
*****
 32 34 0 0 0
SMALL
GASTEIGER

@<TRIPOS>ATOM
      1 N          63.3898   89.3727   12.6785 N.am    1  UNL1       -0.2438
      2 C          62.6283   89.5885   11.4044 C.3     1  UNL1        0.1009
      3 C          62.0986   88.4123   10.6388 C.3     1  UNL1        0.0661
      4 C          62.3304   87.0204   11.1474 C.3     1  UNL1        0.1582
      5 O          63.0920   86.8045   12.4216 O.3     1  UNL1       -0.4375
      6 C          63.6216   87.9807   13.1872 C.2     1  UNL1        0.4051
      7 O          64.3831   87.7649   14.4613 O.2     1  UNL1       -0.2262
      8 C          61.5560   86.7161    9.8993 C.ar    1  UNL1        0.0137
      9 C          62.1640   85.8576    8.8300 C.ar    1  UNL1       -0.0010
     10 C          61.3896   85.5533    7.5819 C.ar    1  UNL1       -0.0002
     11 C          60.0072   86.1075    7.4032 C.ar    1  UNL1       -0.0000
     12 C          59.3992   86.9659    8.4725 C.ar    1  UNL1       -0.0002
     13 C          60.1736   87.2702    9.7206 C.ar    1  UNL1       -0.0010
     14 C          63.6072   90.6958   14.9038 C.3     1  UNL1        0.0265
     15 C          63.9195   90.5488   13.4441 C.3     1  UNL1        0.1011
     16 C          64.7615   91.5780   12.7499 C.ar    1  UNL1       -0.0040
     17 C          64.5570   91.8535   11.2897 C.ar    1  UNL1        0.0004
     18 C          65.3990   92.8827   10.5956 C.ar    1  UNL1        0.0368
     19 C          66.4455   93.6362   11.3616 C.ar    1  UNL1        0.1443
     20 C          66.6501   93.3607   12.8218 C.ar    1  UNL1        0.0368
     21 C          65.8081   92.3316   13.5159 C.ar    1  UNL1        0.0004
     22 O          67.2876   94.6654   10.6674 O.3     1  UNL1       -0.4236
     23 C          67.7595   94.4258    9.2639 C.3     1  UNL1        0.5087
     24 F          68.2353   93.0632    8.8550 F       1  UNL1       -0.1550
     25 F          67.7556   95.5486    8.2693 F       1  UNL1       -0.1550
     26 C          62.2933   85.5227   11.2225 C.3     1  UNL1        0.0541
     27 C          62.6920   84.8252   12.4892 C.3     1  UNL1        0.0887
     28 C          63.2594   83.4377   12.4347 C.2     1  UNL1        0.2195
     29 N          64.6798   83.2248   12.0020 N.am    1  UNL1       -0.3288
     30 O          62.4064   82.2632   12.8129 O.2     1  UNL1       -0.2753
     31 H          65.2396   83.9957   11.7538 H       1  UNL1        0.1449
     32 H          65.0522   82.3142   11.9662 H       1  UNL1        0.1449
@<TRIPOS>BOND
     1    15    14    1
     2    15    16    1
     3    16    17   ar
     4    17    18   ar
     5    18    19   ar
     6    19    22    1
     7    22    23    1
     8    23    24    1
     9    23    25    1
    10    19    20   ar
    11    20    21   ar
    12    15     1    1
    13     1     2    1
    14     2     3    1
    15     3     4    1
    16     4    26    1
    17    26    27    1
    18    27    28    1
    19    28    29   am
    20    28    30    2
    21     4     8    1
    22     8     9   ar
    23     9    10   ar
    24    10    11   ar
    25    11    12   ar
    26    12    13   ar
    27     4     5    1
    28     5     6    1
    29     6     7    2
    30    21    16   ar
    31     6     1   am
    32    13     8   ar
    33    29    31    1
    34    29    32    1
@<TRIPOS>MOLECULE
*****
 32 34 0 0 0
SMALL
GASTEIGER

@<TRIPOS>ATOM
      1 N          63.0545   90.0442   11.9575 N.am    1  UNL1       -0.2438
      2 C          63.7500   89.8848   13.2769 C.3     1  UNL1        0.1009
      3 C          64.8798   90.8004   13.6446 C.3     1  UNL1        0.0661
      4 C          65.3142   91.8753   12.6929 C.3     1  UNL1        0.1582
      5 O          64.6187   92.0347   11.3734 O.3     1  UNL1       -0.4375
      6 C          63.4889   91.1191   11.0057 C.2     1  UNL1        0.4051
      7 O          62.7935   91.2784    9.6863 O.2     1  UNL1       -0.2262
      8 C          66.2766   92.1186   13.8175 C.ar    1  UNL1        0.0137
      9 C          67.7517   91.9744   13.5866 C.ar    1  UNL1       -0.0010
     10 C          68.7141   92.2178   14.7112 C.ar    1  UNL1       -0.0002
     11 C          68.2013   92.6053   16.0665 C.ar    1  UNL1       -0.0000
     12 C          66.7262   92.7495   16.2973 C.ar    1  UNL1       -0.0002
     13 C          65.7638   92.5062   15.1728 C.ar    1  UNL1       -0.0010
     14 C          60.5053   89.5790   11.7700 C.3     1  UNL1        0.0265
     15 C          61.9247   89.1286   11.5898 C.3     1  UNL1        0.1011
     16 C          62.2143   87.7625   11.0419 C.ar    1  UNL1       -0.0040
     17 C          62.2014   87.5306    9.5600 C.ar    1  UNL1        0.0004
     18 C          62.4910   86.1646    9.0122 C.ar    1  UNL1        0.0368
     19 C          62.7934   85.0305    9.9463 C.ar    1  UNL1        0.1443
     20 C          62.8062   85.2625   11.4281 C.ar    1  UNL1        0.0368
     21 C          62.5167   86.6285   11.9760 C.ar    1  UNL1        0.0004
     22 O          63.0830   83.6645    9.3984 O.3     1  UNL1       -0.4236
     23 C          63.8291   82.6649   10.2315 C.3     1  UNL1        0.5087
     24 F          65.0647   83.0803   10.9737 F       1  UNL1       -0.1550
     25 F          63.3396   81.2500   10.3225 F       1  UNL1       -0.1550
     26 C          66.0828   93.0348   12.1317 C.3     1  UNL1        0.0541
     27 C          66.3489   93.1152   10.6577 C.3     1  UNL1        0.0887
     28 C          66.7925   94.4107   10.0452 C.2     1  UNL1        0.2195
     29 N          65.7921   95.4967    9.7811 N.am    1  UNL1       -0.3288
     30 O          68.2364   94.6200    9.6969 O.2     1  UNL1       -0.2753
     31 H          64.8444   95.3593   10.0097 H       1  UNL1        0.1449
     32 H          66.0832   96.3470    9.3791 H       1  UNL1        0.1449
@<TRIPOS>BOND
     1    15    14    1
     2    15    16    1
     3    16    17   ar
     4    17    18   ar
     5    18    19   ar
     6    19    22    1
     7    22    23    1
     8    23    24    1
     9    23    25    1
    10    19    20   ar
    11    20    21   ar
    12    15     1    1
    13     1     2    1
    14     2     3    1
    15     3     4    1
    16     4    26    1
    17    26    27    1
    18    27    28    1
    19    28    29   am
    20    28    30    2
    21     4     8    1
    22     8     9   ar
    23     9    10   ar
    24    10    11   ar
    25    11    12   ar
    26    12    13   ar
    27     4     5    1
    28     5     6    1
    29     6     7    2
    30    21    16   ar
    31     6     1   am
    32    13     8   ar
    33    29    31    1
    34    29    32    1
@<TRIPOS>MOLECULE
*****
 32 34 0 0 0
SMALL
GASTEIGER

@<TRIPOS>ATOM
      1 N          62.5285   90.3365   11.9459 N.am    1  UNL1       -0.2438
      2 C          63.1112   90.2703   13.3265 C.3     1  UNL1        0.1009
      3 C          64.3999   90.9747   13.6312 C.3     1  UNL1        0.0661
      4 C          65.1060   91.7454   12.5554 C.3     1  UNL1        0.1582
      5 O          64.5233   91.8116   11.1747 O.3     1  UNL1       -0.4375
      6 C          63.2346   91.1072   10.8699 C.2     1  UNL1        0.4051
      7 O          62.6519   91.1735    9.4894 O.2     1  UNL1       -0.2262
      8 C          66.0475   91.9744   13.7005 C.ar    1  UNL1        0.0137
      9 C          65.5092   92.3344   15.0535 C.ar    1  UNL1       -0.0010
     10 C          66.4507   92.5635   16.1986 C.ar    1  UNL1       -0.0002
     11 C          67.9304   92.4325   15.9906 C.ar    1  UNL1       -0.0000
     12 C          68.4687   92.0724   14.6376 C.ar    1  UNL1       -0.0002
     13 C          67.5272   91.8434   13.4925 C.ar    1  UNL1       -0.0010
     14 C          59.9989   89.9716   12.4125 C.3     1  UNL1        0.0265
     15 C          61.2397   89.6321   11.6411 C.3     1  UNL1        0.1011
     16 C          61.1918   88.5882   10.5650 C.ar    1  UNL1       -0.0040
     17 C          62.1119   87.4051   10.6263 C.ar    1  UNL1        0.0004
     18 C          62.0640   86.3613    9.5502 C.ar    1  UNL1        0.0368
     19 C          61.0961   86.5005    8.4128 C.ar    1  UNL1        0.1443
     20 C          60.1760   87.6835    8.3515 C.ar    1  UNL1        0.0368
     21 C          60.2239   88.7274    9.4276 C.ar    1  UNL1        0.0004
     22 O          61.0482   85.4565    7.3367 O.3     1  UNL1       -0.4236
     23 C          62.3090   84.7715    6.8997 C.3     1  UNL1        0.5087
     24 F          63.3208   84.3406    7.9199 F       1  UNL1       -0.1550
     25 F          62.5582   84.5173    5.4425 F       1  UNL1       -0.1550
     26 C          66.1391   92.5956   11.8772 C.3     1  UNL1        0.0541
     27 C          65.7199   93.8079   11.0997 C.3     1  UNL1        0.0887
     28 C          66.6196   94.3651   10.0365 C.2     1  UNL1        0.2195
     29 N          66.0690   95.3046    9.0049 N.am    1  UNL1       -0.3288
     30 O          68.0696   93.9827   10.0049 O.2     1  UNL1       -0.2753
     31 H          65.1172   95.5556    9.0257 H       1  UNL1        0.1449
     32 H          66.6594   95.6703    8.3071 H       1  UNL1        0.1449
@<TRIPOS>BOND
     1    15    14    1
     2    15    16    1
     3    16    17   ar
     4    17    18   ar
     5    18    19   ar
     6    19    22    1
     7    22    23    1
     8    23    24    1
     9    23    25    1
    10    19    20   ar
    11    20    21   ar
    12    15     1    1
    13     1     2    1
    14     2     3    1
    15     3     4    1
    16     4    26    1
    17    26    27    1
    18    27    28    1
    19    28    29   am
    20    28    30    2
    21     4     8    1
    22     8     9   ar
    23     9    10   ar
    24    10    11   ar
    25    11    12   ar
    26    12    13   ar
    27     4     5    1
    28     5     6    1
    29     6     7    2
    30    21    16   ar
    31     6     1   am
    32    13     8   ar
    33    29    31    1
    34    29    32    1
@<TRIPOS>MOLECULE
*****
 32 34 0 0 0
SMALL
GASTEIGER

@<TRIPOS>ATOM
      1 N          63.3191   88.9243   12.9819 N.am    1  UNL1       -0.2438
      2 C          63.9647   87.6309   13.3824 C.3     1  UNL1        0.1009
      3 C          63.5276   86.3455   12.7448 C.3     1  UNL1        0.0661
      4 C          62.4449   86.3534   11.7067 C.3     1  UNL1        0.1582
      5 O          61.7992   87.6468   11.3062 O.3     1  UNL1       -0.4375
      6 C          62.2363   88.9322   11.9438 C.2     1  UNL1        0.4051
      7 O          61.5907   90.2256   11.5433 O.2     1  UNL1       -0.2262
      8 C          62.7514   84.8857   11.7521 C.ar    1  UNL1        0.0137
      9 C          63.3211   84.2008   10.5453 C.ar    1  UNL1       -0.0010
     10 C          63.6277   82.7332   10.5908 C.ar    1  UNL1       -0.0002
     11 C          63.3645   81.9505   11.8430 C.ar    1  UNL1       -0.0000
     12 C          62.7948   82.6354   13.0499 C.ar    1  UNL1       -0.0002
     13 C          62.4883   84.1030   13.0044 C.ar    1  UNL1       -0.0010
     14 C          63.2864   90.5598   15.0003 C.3     1  UNL1        0.0265
     15 C          63.7562   90.2097   13.6195 C.3     1  UNL1        0.1011
     16 C          64.6631   91.1452   12.8762 C.ar    1  UNL1       -0.0040
     17 C          65.9322   91.6255   13.5155 C.ar    1  UNL1        0.0004
     18 C          66.8391   92.5609   12.7722 C.ar    1  UNL1        0.0368
     19 C          66.4769   93.0160   11.3896 C.ar    1  UNL1        0.1443
     20 C          65.2078   92.5357   10.7503 C.ar    1  UNL1        0.0368
     21 C          64.3009   91.6003   11.4936 C.ar    1  UNL1        0.0004
     22 O          67.3838   93.9515   10.6463 O.3     1  UNL1       -0.4236
     23 C          68.0293   93.5110    9.3659 C.3     1  UNL1        0.5087
     24 F          69.0333   92.3965    9.3768 F       1  UNL1       -0.1550
     25 F          67.6708   94.1849    8.0747 F       1  UNL1       -0.1550
     26 C          61.4686   85.8515   10.6844 C.3     1  UNL1        0.0541
     27 C          60.8424   86.8074    9.7127 C.3     1  UNL1        0.0887
     28 C          60.3821   86.3190    8.3712 C.2     1  UNL1        0.2195
     29 N          58.9577   86.5227    7.9472 N.am    1  UNL1       -0.3288
     30 O          61.3461   85.6270    7.4537 O.2     1  UNL1       -0.2753
     31 H          58.3251   86.9769    8.5495 H       1  UNL1        0.1449
     32 H          58.6555   86.2022    7.0668 H       1  UNL1        0.1449
@<TRIPOS>BOND
     1    15    14    1
     2    15    16    1
     3    16    17   ar
     4    17    18   ar
     5    18    19   ar
     6    19    22    1
     7    22    23    1
     8    23    24    1
     9    23    25    1
    10    19    20   ar
    11    20    21   ar
    12    15     1    1
    13     1     2    1
    14     2     3    1
    15     3     4    1
    16     4    26    1
    17    26    27    1
    18    27    28    1
    19    28    29   am
    20    28    30    2
    21     4     8    1
    22     8     9   ar
    23     9    10   ar
    24    10    11   ar
    25    11    12   ar
    26    12    13   ar
    27     4     5    1
    28     5     6    1
    29     6     7    2
    30    21    16   ar
    31     6     1   am
    32    13     8   ar
    33    29    31    1
    34    29    32    1
@<TRIPOS>MOLECULE
*****
 32 34 0 0 0
SMALL
GASTEIGER

@<TRIPOS>ATOM
      1 N          62.8069   88.3155   12.2337 N.am    1  UNL1       -0.2438
      2 C          62.4430   87.2317   11.2627 C.3     1  UNL1        0.1009
      3 C          62.7965   85.8054   11.5636 C.3     1  UNL1        0.0661
      4 C          63.5140   85.4628   12.8355 C.3     1  UNL1        0.1582
      5 O          63.8780   86.5466   13.8067 O.3     1  UNL1       -0.4375
      6 C          63.5244   87.9730   13.5058 C.2     1  UNL1        0.4051
      7 O          63.8883   89.0568   14.4768 O.2     1  UNL1       -0.2262
      8 C          63.3835   84.0950   12.2336 C.ar    1  UNL1        0.0137
      9 C          62.5933   83.0357   12.9431 C.ar    1  UNL1       -0.0010
     10 C          62.4628   81.6680   12.3412 C.ar    1  UNL1       -0.0002
     11 C          63.1226   81.3596   11.0298 C.ar    1  UNL1       -0.0000
     12 C          63.9129   82.4190   10.3204 C.ar    1  UNL1       -0.0002
     13 C          64.0434   83.7867   10.9223 C.ar    1  UNL1       -0.0010
     14 C          61.0206   90.1299   11.7170 C.3     1  UNL1        0.0265
     15 C          62.4533   89.7418   11.9328 C.3     1  UNL1        0.1011
     16 C          63.5325   90.7802   11.8478 C.ar    1  UNL1       -0.0040
     17 C          63.8723   91.4023   10.5259 C.ar    1  UNL1        0.0004
     18 C          64.9515   92.4405   10.4410 C.ar    1  UNL1        0.0368
     19 C          65.6909   92.8567   11.6779 C.ar    1  UNL1        0.1443
     20 C          65.3512   92.2346   12.9998 C.ar    1  UNL1        0.0368
     21 C          64.2720   91.1963   13.0848 C.ar    1  UNL1        0.0004
     22 O          66.7702   93.8950   11.5929 O.3     1  UNL1       -0.4236
     23 C          66.6253   95.0519   10.6493 C.3     1  UNL1        0.5087
     24 F          67.7031   95.3421    9.6472 F       1  UNL1       -0.1550
     25 F          65.4025   95.9188   10.7076 F       1  UNL1       -0.1550
     26 C          64.1862   84.6452   13.8985 C.3     1  UNL1        0.0541
     27 C          64.4093   85.2267   15.2630 C.3     1  UNL1        0.0887
     28 C          63.2398   85.5032   16.1608 C.2     1  UNL1        0.2195
     29 N          63.0925   86.8487   16.8074 N.am    1  UNL1       -0.3288
     30 O          62.2179   84.4344   16.4120 O.2     1  UNL1       -0.2753
     31 H          63.7632   87.5502   16.6425 H       1  UNL1        0.1449
     32 H          62.3249   87.0303   17.3966 H       1  UNL1        0.1449
@<TRIPOS>BOND
     1    15    14    1
     2    15    16    1
     3    16    17   ar
     4    17    18   ar
     5    18    19   ar
     6    19    22    1
     7    22    23    1
     8    23    24    1
     9    23    25    1
    10    19    20   ar
    11    20    21   ar
    12    15     1    1
    13     1     2    1
    14     2     3    1
    15     3     4    1
    16     4    26    1
    17    26    27    1
    18    27    28    1
    19    28    29   am
    20    28    30    2
    21     4     8    1
    22     8     9   ar
    23     9    10   ar
    24    10    11   ar
    25    11    12   ar
    26    12    13   ar
    27     4     5    1
    28     5     6    1
    29     6     7    2
    30    21    16   ar
    31     6     1   am
    32    13     8   ar
    33    29    31    1
    34    29    32    1
@<TRIPOS>MOLECULE
*****
 32 34 0 0 0
SMALL
GASTEIGER

@<TRIPOS>ATOM
      1 N          62.8763   85.7089   12.3429 N.am    1  UNL1       -0.2438
      2 C          62.0068   85.3308   11.1806 C.3     1  UNL1        0.1009
      3 C          61.3837   86.3987   10.3314 C.3     1  UNL1        0.0661
      4 C          61.6301   87.8448   10.6443 C.3     1  UNL1        0.1582
      5 O          62.4997   88.2231   11.8066 O.3     1  UNL1       -0.4375
      6 C          63.1228   87.1551   12.6559 C.2     1  UNL1        0.4051
      7 O          63.9923   87.5333   13.8182 O.2     1  UNL1       -0.2262
      8 C          60.7386   87.9858    9.4462 C.ar    1  UNL1        0.0137
      9 C          60.6358   89.3047    8.7390 C.ar    1  UNL1       -0.0010
     10 C          59.7443   89.4457    7.5409 C.ar    1  UNL1       -0.0002
     11 C          58.9557   88.2679    7.0501 C.ar    1  UNL1       -0.0000
     12 C          59.0586   86.9491    7.7573 C.ar    1  UNL1       -0.0002
     13 C          59.9501   86.8080    8.9554 C.ar    1  UNL1       -0.0010
     14 C          64.3637   85.0192   14.3583 C.3     1  UNL1        0.0265
     15 C          63.4994   84.6410   13.1922 C.3     1  UNL1        0.1011
     16 C          63.2581   83.1948   12.8753 C.ar    1  UNL1       -0.0040
     17 C          62.4109   82.3583   13.7876 C.ar    1  UNL1        0.0004
     18 C          62.1696   80.9122   13.4707 C.ar    1  UNL1        0.0368
     19 C          62.7757   80.3026   12.2415 C.ar    1  UNL1        0.1443
     20 C          63.6230   81.1390   11.3292 C.ar    1  UNL1        0.0368
     21 C          63.8642   82.5852   11.6461 C.ar    1  UNL1        0.0004
     22 O          62.5345   78.8563   11.9246 O.3     1  UNL1       -0.4236
     23 C          62.7998   78.3370   10.5427 C.3     1  UNL1        0.5087
     24 F          62.4410   79.1688    9.3470 F       1  UNL1       -0.1550
     25 F          63.4240   76.9858   10.3562 F       1  UNL1       -0.1550
     26 C          61.5669   89.3400   10.5412 C.3     1  UNL1        0.0541
     27 C          61.0120   90.1473   11.6770 C.3     1  UNL1        0.0887
     28 C          59.5414   90.1160   11.9712 C.2     1  UNL1        0.2195
     29 N          58.9430   88.9361   12.6781 N.am    1  UNL1       -0.3288
     30 O          58.6695   91.2646   11.5585 O.2     1  UNL1       -0.2753
     31 H          59.5153   88.1823   12.9490 H       1  UNL1        0.1449
     32 H          57.9778   88.9156   12.8712 H       1  UNL1        0.1449
@<TRIPOS>BOND
     1    15    14    1
     2    15    16    1
     3    16    17   ar
     4    17    18   ar
     5    18    19   ar
     6    19    22    1
     7    22    23    1
     8    23    24    1
     9    23    25    1
    10    19    20   ar
    11    20    21   ar
    12    15     1    1
    13     1     2    1
    14     2     3    1
    15     3     4    1
    16     4    26    1
    17    26    27    1
    18    27    28    1
    19    28    29   am
    20    28    30    2
    21     4     8    1
    22     8     9   ar
    23     9    10   ar
    24    10    11   ar
    25    11    12   ar
    26    12    13   ar
    27     4     5    1
    28     5     6    1
    29     6     7    2
    30    21    16   ar
    31     6     1   am
    32    13     8   ar
    33    29    31    1
    34    29    32    1
@<TRIPOS>MOLECULE
*****
 32 34 0 0 0
SMALL
GASTEIGER

@<TRIPOS>ATOM
      1 N          62.9142   85.5495   12.6266 N.am    1  UNL1       -0.2438
      2 C          61.9808   85.2468   11.4921 C.3     1  UNL1        0.1009
      3 C          61.4800   86.3568   10.6163 C.3     1  UNL1        0.0661
      4 C          61.9125   87.7695   10.8750 C.3     1  UNL1        0.1582
      5 O          62.8460   88.0724   12.0096 O.3     1  UNL1       -0.4375
      6 C          63.3468   86.9623   12.8854 C.2     1  UNL1        0.4051
      7 O          64.2802   87.2651   14.0199 O.2     1  UNL1       -0.2262
      8 C          61.0219   87.9832    9.6871 C.ar    1  UNL1        0.0137
      9 C          60.4348   86.8048    8.9683 C.ar    1  UNL1       -0.0010
     10 C          59.5442   87.0185    7.7803 C.ar    1  UNL1       -0.0002
     11 C          59.2408   88.4105    7.3112 C.ar    1  UNL1       -0.0000
     12 C          59.8279   89.5890    8.0300 C.ar    1  UNL1       -0.0002
     13 C          60.7185   89.3753    9.2180 C.ar    1  UNL1       -0.0010
     14 C          64.1467   84.7582   14.7725 C.3     1  UNL1        0.0265
     15 C          63.4151   84.4395   13.5024 C.3     1  UNL1        0.1011
     16 C          63.1842   83.0107   13.1081 C.ar    1  UNL1       -0.0040
     17 C          63.7089   82.4998   11.7991 C.ar    1  UNL1        0.0004
     18 C          63.4781   81.0711   11.4048 C.ar    1  UNL1        0.0368
     19 C          62.7225   80.1533   12.3196 C.ar    1  UNL1        0.1443
     20 C          62.1978   80.6642   13.6286 C.ar    1  UNL1        0.0368
     21 C          62.4287   82.0929   14.0229 C.ar    1  UNL1        0.0004
     22 O          62.4917   78.7246   11.9253 O.3     1  UNL1       -0.4236
     23 C          62.8036   78.2719   10.5297 C.3     1  UNL1        0.5087
     24 F          62.3855   79.1103    9.3582 F       1  UNL1       -0.1550
     25 F          63.5336   76.9809   10.3054 F       1  UNL1       -0.1550
     26 C          62.0358   89.2566   10.7212 C.3     1  UNL1        0.0541
     27 C          62.9771   90.0260   11.5997 C.3     1  UNL1        0.0887
     28 C          63.6408   91.2675   11.0818 C.2     1  UNL1        0.2195
     29 N          63.2617   91.8157    9.7380 N.am    1  UNL1       -0.3288
     30 O          64.6835   91.9608   11.9077 O.2     1  UNL1       -0.2753
     31 H          62.5773   91.3607    9.1960 H       1  UNL1        0.1449
     32 H          63.6972   92.6306    9.3981 H       1  UNL1        0.1449
@<TRIPOS>BOND
     1    15    14    1
     2    15    16    1
     3    16    17   ar
     4    17    18   ar
     5    18    19   ar
     6    19    22    1
     7    22    23    1
     8    23    24    1
     9    23    25    1
    10    19    20   ar
    11    20    21   ar
    12    15     1    1
    13     1     2    1
    14     2     3    1
    15     3     4    1
    16     4    26    1
    17    26    27    1
    18    27    28    1
    19    28    29   am
    20    28    30    2
    21     4     8    1
    22     8     9   ar
    23     9    10   ar
    24    10    11   ar
    25    11    12   ar
    26    12    13   ar
    27     4     5    1
    28     5     6    1
    29     6     7    2
    30    21    16   ar
    31     6     1   am
    32    13     8   ar
    33    29    31    1
    34    29    32    1
