@<TRIPOS>MOLECULE
*****
 28 31 0 0 0
SMALL
GASTEIGER

@<TRIPOS>ATOM
      1 C          59.1354   88.7126    7.4134 C.ar    1  UNL1        0.0645
      2 C          59.0594   87.2302    7.1974 C.ar    1  UNL1        0.0158
      3 C          59.8172   86.3011    8.0988 C.ar    1  UNL1        0.0014
      4 C          60.6508   86.8544    9.2163 C.ar    1  UNL1        0.0032
      5 C          61.3218   85.7605    9.9929 C.ar    1  UNL1        0.0016
      6 C          62.2345   85.8788   11.1774 C.ar    1  UNL1        0.0192
      7 C          62.7016   87.1203   11.8778 C.ar    1  UNL1        0.0844
      8 N          63.6122   86.7931   13.0241 N.ar    1  UNL1       -0.2437
      9 C          64.1925   87.8956   13.8592 C.ar    1  UNL1        0.0988
     10 C          63.8623   89.3254   13.5481 C.ar    1  UNL1        0.0193
     11 C          62.9517   89.6526   12.4020 C.ar    1  UNL1        0.0062
     12 C          62.3714   88.5500   11.5668 C.ar    1  UNL1        0.0566
     13 C          61.4925   89.0914   10.4784 C.ar    1  UNL1        0.1970
     14 O          61.3621   90.5849   10.4297 O.2     1  UNL1       -0.2865
     15 C          60.7268   88.3368    9.4324 C.ar    1  UNL1        0.0403
     16 C          59.9691   89.2659    8.5309 C.ar    1  UNL1        0.0190
     17 C          64.4426   90.4280   14.3833 C.ar    1  UNL1        0.0015
     18 C          63.8461   90.7486   15.7217 C.ar    1  UNL1        0.0000
     19 C          64.4264   91.8512   16.5568 C.ar    1  UNL1        0.0000
     20 C          65.6033   92.6332   16.0536 C.ar    1  UNL1        0.0000
     21 C          66.1999   92.3126   14.7152 C.ar    1  UNL1        0.0000
     22 C          65.6196   91.2100   13.8800 C.ar    1  UNL1        0.0000
     23 N          58.3776   89.6417    6.5120 N.pl3   1  UNL1       -0.2187
     24 H          57.3937   89.6143    6.4917 H       1  UNL1        0.1734
     25 C          59.8604   91.5835    4.7710 C.3     1  UNL1        0.1996
     26 S          59.1190   90.6126    5.6415 S.O2    1  UNL1        0.0558
     27 O          60.3575   89.7751    5.7623 O.2     1  UNL1       -0.1544
     28 O          57.8804   91.4500    5.5207 O.2     1  UNL1       -0.1544
@<TRIPOS>BOND
     1    25    26    1
     2    26    27    2
     3    26    28    2
     4    26    23    1
     5    23     1    1
     6     1     2   ar
     7     2     3   ar
     8     3     4   ar
     9     4     5   ar
    10     5     6   ar
    11     6     7   ar
    12     7     8   ar
    13     8     9   ar
    14     9    10   ar
    15    10    17    1
    16    17    18   ar
    17    18    19   ar
    18    19    20   ar
    19    20    21   ar
    20    21    22   ar
    21    10    11   ar
    22    11    12   ar
    23    12    13   ar
    24    13    14    2
    25    13    15   ar
    26    15    16   ar
    27    16     1   ar
    28    15     4   ar
    29    12     7   ar
    30    22    17   ar
    31    23    24    1
@<TRIPOS>MOLECULE
*****
 28 31 0 0 0
SMALL
GASTEIGER

@<TRIPOS>ATOM
      1 C          65.2548   91.4222   14.5002 C.ar    1  UNL1        0.0645
      2 C          64.8087   92.3670   13.4240 C.ar    1  UNL1        0.0158
      3 C          64.0203   91.8544   12.2554 C.ar    1  UNL1        0.0014
      4 C          63.6780   90.3969   12.1630 C.ar    1  UNL1        0.0032
      5 C          62.8895   90.0968   10.9228 C.ar    1  UNL1        0.0016
      6 C          62.3523   88.7775   10.4526 C.ar    1  UNL1        0.0192
      7 C          62.4709   87.4327   11.1063 C.ar    1  UNL1        0.0844
      8 N          61.7866   86.3691   10.2999 N.ar    1  UNL1       -0.2437
      9 C          61.7874   84.9477   10.7790 C.ar    1  UNL1        0.0988
     10 C          62.4726   84.5899   12.0646 C.ar    1  UNL1        0.0193
     11 C          63.1569   85.6535   12.8709 C.ar    1  UNL1        0.0062
     12 C          63.1561   87.0750   12.3918 C.ar    1  UNL1        0.0566
     13 C          63.8918   87.9737   13.3411 C.ar    1  UNL1        0.1970
     14 O          64.4719   87.3056   14.5523 O.2     1  UNL1       -0.2865
     15 C          64.1241   89.4521   13.2392 C.ar    1  UNL1        0.0403
     16 C          64.9125   89.9648   14.4078 C.ar    1  UNL1        0.0190
     17 C          62.4734   83.1685   12.5437 C.ar    1  UNL1        0.0015
     18 C          62.0972   82.8547   13.9614 C.ar    1  UNL1        0.0000
     19 C          62.0980   81.4332   14.4405 C.ar    1  UNL1        0.0000
     20 C          62.4750   80.3257   13.5019 C.ar    1  UNL1        0.0000
     21 C          62.8512   80.6394   12.0841 C.ar    1  UNL1        0.0000
     22 C          62.8504   82.0609   11.6050 C.ar    1  UNL1        0.0000
     23 N          66.0432   91.9348   15.6688 N.pl3   1  UNL1       -0.2187
     24 H          65.6356   91.9600   16.5646 H       1  UNL1        0.1734
     25 C          68.8621   92.8834   15.2762 C.3     1  UNL1        0.1996
     26 S          67.4526   92.4091   15.4725 S.O2    1  UNL1        0.0558
     27 O          67.6914   91.2957   14.4963 O.2     1  UNL1       -0.1544
     28 O          67.2139   93.5226   16.4488 O.2     1  UNL1       -0.1544
@<TRIPOS>BOND
     1    25    26    1
     2    26    27    2
     3    26    28    2
     4    26    23    1
     5    23     1    1
     6     1     2   ar
     7     2     3   ar
     8     3     4   ar
     9     4     5   ar
    10     5     6   ar
    11     6     7   ar
    12     7     8   ar
    13     8     9   ar
    14     9    10   ar
    15    10    17    1
    16    17    18   ar
    17    18    19   ar
    18    19    20   ar
    19    20    21   ar
    20    21    22   ar
    21    10    11   ar
    22    11    12   ar
    23    12    13   ar
    24    13    14    2
    25    13    15   ar
    26    15    16   ar
    27    16     1   ar
    28    15     4   ar
    29    12     7   ar
    30    22    17   ar
    31    23    24    1
@<TRIPOS>MOLECULE
*****
 28 31 0 0 0
SMALL
GASTEIGER

@<TRIPOS>ATOM
      1 C          64.1547   91.1110   14.4232 C.ar    1  UNL1        0.0645
      2 C          63.9230   91.3848   15.8796 C.ar    1  UNL1        0.0158
      3 C          63.5567   90.2624   16.8048 C.ar    1  UNL1        0.0014
      4 C          63.4221   88.8661   16.2736 C.ar    1  UNL1        0.0032
      5 C          63.0515   87.9000   17.3595 C.ar    1  UNL1        0.0016
      6 C          62.8212   86.4213   17.2571 C.ar    1  UNL1        0.0192
      7 C          62.9045   85.5436   16.0436 C.ar    1  UNL1        0.0844
      8 N          62.5988   84.1140   16.3793 N.ar    1  UNL1       -0.2437
      9 C          62.6274   83.0685   15.3040 C.ar    1  UNL1        0.0988
     10 C          62.9617   83.4527   13.8930 C.ar    1  UNL1        0.0193
     11 C          63.2674   84.8823   13.5574 C.ar    1  UNL1        0.0062
     12 C          63.2388   85.9278   14.6327 C.ar    1  UNL1        0.0566
     13 C          63.5723   87.2846   14.0869 C.ar    1  UNL1        0.1970
     14 O          63.8626   87.3411   12.6164 O.2     1  UNL1       -0.2865
     15 C          63.6539   88.5923   14.8172 C.ar    1  UNL1        0.0403
     16 C          64.0202   89.7147   13.8920 C.ar    1  UNL1        0.0190
     17 C          62.9903   82.4073   12.8178 C.ar    1  UNL1        0.0015
     18 C          63.4081   82.7751   11.4249 C.ar    1  UNL1        0.0000
     19 C          63.4367   81.7297   10.3497 C.ar    1  UNL1        0.0000
     20 C          63.0475   80.3163   10.6673 C.ar    1  UNL1        0.0000
     21 C          62.6297   79.9484   12.0602 C.ar    1  UNL1        0.0000
     22 C          62.6011   80.9939   13.1354 C.ar    1  UNL1        0.0000
     23 N          64.5211   92.2334   13.4980 N.pl3   1  UNL1       -0.2187
     24 H          63.8747   92.9538   13.3180 H       1  UNL1        0.1734
     25 C          67.2234   92.2830   12.1961 C.3     1  UNL1        0.1996
     26 S          65.8722   92.2582   12.8471 S.O2    1  UNL1        0.0558
     27 O          65.2334   92.0154   11.5118 O.2     1  UNL1       -0.1544
     28 O          66.5110   92.5010   14.1823 O.2     1  UNL1       -0.1544
@<TRIPOS>BOND
     1    25    26    1
     2    26    27    2
     3    26    28    2
     4    26    23    1
     5    23     1    1
     6     1     2   ar
     7     2     3   ar
     8     3     4   ar
     9     4     5   ar
    10     5     6   ar
    11     6     7   ar
    12     7     8   ar
    13     8     9   ar
    14     9    10   ar
    15    10    17    1
    16    17    18   ar
    17    18    19   ar
    18    19    20   ar
    19    20    21   ar
    20    21    22   ar
    21    10    11   ar
    22    11    12   ar
    23    12    13   ar
    24    13    14    2
    25    13    15   ar
    26    15    16   ar
    27    16     1   ar
    28    15     4   ar
    29    12     7   ar
    30    22    17   ar
    31    23    24    1
@<TRIPOS>MOLECULE
*****
 28 31 0 0 0
SMALL
GASTEIGER

@<TRIPOS>ATOM
      1 C          63.1045   82.7924   12.4710 C.ar    1  UNL1        0.0645
      2 C          62.3318   82.7608   11.1858 C.ar    1  UNL1        0.0158
      3 C          61.9812   84.0424   10.4897 C.ar    1  UNL1        0.0014
      4 C          62.4035   85.3556   11.0788 C.ar    1  UNL1        0.0032
      5 C          61.9540   86.5072   10.2292 C.ar    1  UNL1        0.0016
      6 C          62.1664   87.9748   10.4550 C.ar    1  UNL1        0.0192
      7 C          62.8805   88.6534   11.5861 C.ar    1  UNL1        0.0844
      8 N          62.8641   90.1450   11.4285 N.ar    1  UNL1       -0.2437
      9 C          63.5259   91.0151   12.4556 C.ar    1  UNL1        0.0988
     10 C          64.2041   90.3935   13.6404 C.ar    1  UNL1        0.0193
     11 C          64.2206   88.9020   13.7980 C.ar    1  UNL1        0.0062
     12 C          63.5588   88.0319   12.7709 C.ar    1  UNL1        0.0566
     13 C          63.6904   86.5783   13.1171 C.ar    1  UNL1        0.1970
     14 O          64.4345   86.2758   14.3838 O.2     1  UNL1       -0.2865
     15 C          63.1762   85.3872   12.3640 C.ar    1  UNL1        0.0403
     16 C          63.5267   84.1056   13.0601 C.ar    1  UNL1        0.0190
     17 C          64.8659   91.2636   14.6675 C.ar    1  UNL1        0.0015
     18 C          66.1522   91.9630   14.3416 C.ar    1  UNL1        0.0000
     19 C          66.8140   92.8331   15.3687 C.ar    1  UNL1        0.0000
     20 C          66.1895   93.0037   16.7218 C.ar    1  UNL1        0.0000
     21 C          64.9032   92.3043   17.0478 C.ar    1  UNL1        0.0000
     22 C          64.2414   91.4342   16.0206 C.ar    1  UNL1        0.0000
     23 N          63.4550   81.5108   13.1671 N.pl3   1  UNL1       -0.2187
     24 H          64.3985   81.2800   13.3280 H       1  UNL1        0.1734
     25 C          61.2811   79.6505   14.0692 C.3     1  UNL1        0.1996
     26 S          62.3681   80.5807   13.6181 S.O2    1  UNL1        0.0558
     27 O          62.6447   79.6883   12.4447 O.2     1  UNL1       -0.1544
     28 O          62.0914   81.4730   14.7916 O.2     1  UNL1       -0.1544
@<TRIPOS>BOND
     1    25    26    1
     2    26    27    2
     3    26    28    2
     4    26    23    1
     5    23     1    1
     6     1     2   ar
     7     2     3   ar
     8     3     4   ar
     9     4     5   ar
    10     5     6   ar
    11     6     7   ar
    12     7     8   ar
    13     8     9   ar
    14     9    10   ar
    15    10    17    1
    16    17    18   ar
    17    18    19   ar
    18    19    20   ar
    19    20    21   ar
    20    21    22   ar
    21    10    11   ar
    22    11    12   ar
    23    12    13   ar
    24    13    14    2
    25    13    15   ar
    26    15    16   ar
    27    16     1   ar
    28    15     4   ar
    29    12     7   ar
    30    22    17   ar
    31    23    24    1
@<TRIPOS>MOLECULE
*****
 28 31 0 0 0
SMALL
GASTEIGER

@<TRIPOS>ATOM
      1 C          63.0418   83.2917   14.0363 C.ar    1  UNL1        0.0645
      2 C          62.5184   82.9724   15.4052 C.ar    1  UNL1        0.0158
      3 C          62.4155   84.0535   16.4399 C.ar    1  UNL1        0.0014
      4 C          62.8360   85.4540   16.1056 C.ar    1  UNL1        0.0032
      5 C          62.6531   86.3751   17.2753 C.ar    1  UNL1        0.0016
      6 C          62.9484   87.8430   17.3648 C.ar    1  UNL1        0.0192
      7 C          63.4995   88.7524   16.3068 C.ar    1  UNL1        0.0844
      8 N          63.6432   90.1573   16.8124 N.ar    1  UNL1       -0.2437
      9 C          64.1790   91.2283   15.9091 C.ar    1  UNL1        0.0988
     10 C          64.5710   90.8943   14.5002 C.ar    1  UNL1        0.0193
     11 C          64.4272   89.4895   13.9947 C.ar    1  UNL1        0.0062
     12 C          63.8915   88.4185   14.8980 C.ar    1  UNL1        0.0566
     13 C          63.8291   87.0926   14.1992 C.ar    1  UNL1        0.1970
     14 O          64.2986   87.0852   12.7746 O.2     1  UNL1       -0.2865
     15 C          63.3594   85.7733   14.7366 C.ar    1  UNL1        0.0403
     16 C          63.4623   84.6922   13.7020 C.ar    1  UNL1        0.0190
     17 C          65.1067   91.9653   13.5969 C.ar    1  UNL1        0.0015
     18 C          64.7257   91.9827   12.1462 C.ar    1  UNL1        0.0000
     19 C          65.2615   93.0537   11.2429 C.ar    1  UNL1        0.0000
     20 C          66.1782   94.1072   11.7902 C.ar    1  UNL1        0.0000
     21 C          66.5592   94.0898   13.2409 C.ar    1  UNL1        0.0000
     22 C          66.0235   93.0188   14.1443 C.ar    1  UNL1        0.0000
     23 N          63.1447   82.2105   13.0016 N.pl3   1  UNL1       -0.2187
     24 H          62.8428   81.2974   13.2122 H       1  UNL1        0.1734
     25 C          64.2701   82.8307   10.2908 C.3     1  UNL1        0.1996
     26 S          63.7073   82.5206   11.6462 S.O2    1  UNL1        0.0558
     27 O          65.0341   81.9634   12.0695 O.2     1  UNL1       -0.1544
     28 O          62.3806   83.0778   11.2229 O.2     1  UNL1       -0.1544
@<TRIPOS>BOND
     1    25    26    1
     2    26    27    2
     3    26    28    2
     4    26    23    1
     5    23     1    1
     6     1     2   ar
     7     2     3   ar
     8     3     4   ar
     9     4     5   ar
    10     5     6   ar
    11     6     7   ar
    12     7     8   ar
    13     8     9   ar
    14     9    10   ar
    15    10    17    1
    16    17    18   ar
    17    18    19   ar
    18    19    20   ar
    19    20    21   ar
    20    21    22   ar
    21    10    11   ar
    22    11    12   ar
    23    12    13   ar
    24    13    14    2
    25    13    15   ar
    26    15    16   ar
    27    16     1   ar
    28    15     4   ar
    29    12     7   ar
    30    22    17   ar
    31    23    24    1
@<TRIPOS>MOLECULE
*****
 28 31 0 0 0
SMALL
GASTEIGER

@<TRIPOS>ATOM
      1 C          63.8557   83.3988   14.5461 C.ar    1  UNL1        0.0645
      2 C          64.6786   84.1636   15.5400 C.ar    1  UNL1        0.0158
      3 C          64.8119   85.6525   15.4157 C.ar    1  UNL1        0.0014
      4 C          64.1224   86.3765   14.2976 C.ar    1  UNL1        0.0032
      5 C          64.3844   87.8523   14.3565 C.ar    1  UNL1        0.0016
      6 C          63.8882   88.9277   13.4359 C.ar    1  UNL1        0.0192
      7 C          63.0074   88.7929   12.2292 C.ar    1  UNL1        0.0844
      8 N          62.7487   90.1242   11.5882 N.ar    1  UNL1       -0.2437
      9 C          61.8879   90.2119   10.3629 C.ar    1  UNL1        0.0988
     10 C          61.2858   88.9684    9.7787 C.ar    1  UNL1        0.0193
     11 C          61.5446   87.6373   10.4197 C.ar    1  UNL1        0.0062
     12 C          62.4054   87.5495   11.6450 C.ar    1  UNL1        0.0566
     13 C          62.5354   86.1337   12.1232 C.ar    1  UNL1        0.1970
     14 O          61.8046   85.1037   11.3138 O.2     1  UNL1       -0.2865
     15 C          63.2995   85.6117   13.3037 C.ar    1  UNL1        0.0403
     16 C          63.1662   84.1228   13.4280 C.ar    1  UNL1        0.0190
     17 C          60.4250   89.0562    8.5534 C.ar    1  UNL1        0.0015
     18 C          60.4849   90.2745    7.6804 C.ar    1  UNL1        0.0000
     19 C          59.6241   90.3622    6.4551 C.ar    1  UNL1        0.0000
     20 C          58.7034   89.2317    6.1028 C.ar    1  UNL1        0.0000
     21 C          58.6435   88.0133    6.9758 C.ar    1  UNL1        0.0000
     22 C          59.5043   87.9255    8.2011 C.ar    1  UNL1        0.0000
     23 N          63.7224   81.9099   14.6704 N.pl3   1  UNL1       -0.2187
     24 H          63.9859   81.4601   15.5055 H       1  UNL1        0.1734
     25 C          62.6526   80.3028   12.3741 C.3     1  UNL1        0.1996
     26 S          63.1875   81.1064   13.5223 S.O2    1  UNL1        0.0558
     27 O          61.9148   80.8705   14.2802 O.2     1  UNL1       -0.1544
     28 O          64.4602   81.3422   12.7643 O.2     1  UNL1       -0.1544
@<TRIPOS>BOND
     1    25    26    1
     2    26    27    2
     3    26    28    2
     4    26    23    1
     5    23     1    1
     6     1     2   ar
     7     2     3   ar
     8     3     4   ar
     9     4     5   ar
    10     5     6   ar
    11     6     7   ar
    12     7     8   ar
    13     8     9   ar
    14     9    10   ar
    15    10    17    1
    16    17    18   ar
    17    18    19   ar
    18    19    20   ar
    19    20    21   ar
    20    21    22   ar
    21    10    11   ar
    22    11    12   ar
    23    12    13   ar
    24    13    14    2
    25    13    15   ar
    26    15    16   ar
    27    16     1   ar
    28    15     4   ar
    29    12     7   ar
    30    22    17   ar
    31    23    24    1
@<TRIPOS>MOLECULE
*****
 28 31 0 0 0
SMALL
GASTEIGER

@<TRIPOS>ATOM
      1 C          62.7963   89.8301   12.3023 C.ar    1  UNL1        0.0645
      2 C          63.4149   90.2973   13.5864 C.ar    1  UNL1        0.0158
      3 C          63.9693   89.2988   14.5588 C.ar    1  UNL1        0.0014
      4 C          63.9052   87.8330   14.2470 C.ar    1  UNL1        0.0032
      5 C          64.5121   87.0119   15.3458 C.ar    1  UNL1        0.0016
      6 C          64.6505   85.5208   15.4318 C.ar    1  UNL1        0.0192
      7 C          64.2160   84.4824   14.4403 C.ar    1  UNL1        0.0844
      8 N          64.5445   83.0985   14.9166 N.ar    1  UNL1       -0.2437
      9 C          64.1929   81.9109   14.0704 C.ar    1  UNL1        0.0988
     10 C          63.5128   82.1073   12.7479 C.ar    1  UNL1        0.0193
     11 C          63.1843   83.4912   12.2717 C.ar    1  UNL1        0.0062
     12 C          63.5359   84.6788   13.1179 C.ar    1  UNL1        0.0566
     13 C          63.1223   85.9620   12.4603 C.ar    1  UNL1        0.1970
     14 O          62.4563   85.8230   11.1235 O.2     1  UNL1       -0.2865
     15 C          63.2866   87.3657   12.9628 C.ar    1  UNL1        0.0403
     16 C          62.7322   88.3643   11.9905 C.ar    1  UNL1        0.0190
     17 C          63.1611   80.9198   11.9017 C.ar    1  UNL1        0.0015
     18 C          62.7129   79.6434   12.5497 C.ar    1  UNL1        0.0000
     19 C          62.3613   78.4558   11.7035 C.ar    1  UNL1        0.0000
     20 C          62.4579   78.5446   10.2093 C.ar    1  UNL1        0.0000
     21 C          62.9062   79.8210    9.5612 C.ar    1  UNL1        0.0000
     22 C          63.2578   81.0086   10.4074 C.ar    1  UNL1        0.0000
     23 N          62.2419   90.8287   11.3300 N.pl3   1  UNL1       -0.2187
     24 H          62.5453   91.7648   11.3590 H       1  UNL1        0.1734
     25 C          60.2085   89.9733    9.2968 C.3     1  UNL1        0.1996
     26 S          61.2252   90.4010   10.3134 S.O2    1  UNL1        0.0558
     27 O          62.3202   90.1752    9.3134 O.2     1  UNL1       -0.1544
     28 O          60.1303   90.6268   11.3135 O.2     1  UNL1       -0.1544
@<TRIPOS>BOND
     1    25    26    1
     2    26    27    2
     3    26    28    2
     4    26    23    1
     5    23     1    1
     6     1     2   ar
     7     2     3   ar
     8     3     4   ar
     9     4     5   ar
    10     5     6   ar
    11     6     7   ar
    12     7     8   ar
    13     8     9   ar
    14     9    10   ar
    15    10    17    1
    16    17    18   ar
    17    18    19   ar
    18    19    20   ar
    19    20    21   ar
    20    21    22   ar
    21    10    11   ar
    22    11    12   ar
    23    12    13   ar
    24    13    14    2
    25    13    15   ar
    26    15    16   ar
    27    16     1   ar
    28    15     4   ar
    29    12     7   ar
    30    22    17   ar
    31    23    24    1
@<TRIPOS>MOLECULE
*****
 28 31 0 0 0
SMALL
GASTEIGER

@<TRIPOS>ATOM
      1 C          62.6735   84.2534   13.2623 C.ar    1  UNL1        0.0645
      2 C          61.7553   84.2871   12.0766 C.ar    1  UNL1        0.0158
      3 C          61.5878   85.5556   11.2937 C.ar    1  UNL1        0.0014
      4 C          62.3384   86.7902   11.6964 C.ar    1  UNL1        0.0032
      5 C          62.0291   87.9411   10.7855 C.ar    1  UNL1        0.0016
      6 C          62.5616   89.3425   10.8353 C.ar    1  UNL1        0.0192
      7 C          63.5348   89.9392   11.8083 C.ar    1  UNL1        0.0844
      8 N          63.8019   91.3828   11.5008 N.ar    1  UNL1       -0.2437
      9 C          64.7501   92.1690   12.3568 C.ar    1  UNL1        0.0988
     10 C          65.4313   91.5116   13.5203 C.ar    1  UNL1        0.0193
     11 C          65.1643   90.0680   13.8278 C.ar    1  UNL1        0.0062
     12 C          64.2160   89.2818   12.9718 C.ar    1  UNL1        0.0566
     13 C          64.0921   87.8653   13.4497 C.ar    1  UNL1        0.1970
     14 O          64.9124   87.5108   14.6544 O.2     1  UNL1       -0.2865
     15 C          63.2565   86.7564   12.8820 C.ar    1  UNL1        0.0403
     16 C          63.4241   85.4880   13.6650 C.ar    1  UNL1        0.0190
     17 C          66.3796   92.2978   14.3763 C.ar    1  UNL1        0.0015
     18 C          67.1223   91.6206   15.4897 C.ar    1  UNL1        0.0000
     19 C          68.0705   92.4068   16.3457 C.ar    1  UNL1        0.0000
     20 C          68.2760   93.8702   16.0883 C.ar    1  UNL1        0.0000
     21 C          67.5333   94.5474   14.9748 C.ar    1  UNL1        0.0000
     22 C          66.5851   93.7612   14.1188 C.ar    1  UNL1        0.0000
     23 N          62.8410   82.9849   14.0452 N.pl3   1  UNL1       -0.2187
     24 H          63.0232   83.0236   15.0120 H       1  UNL1        0.1734
     25 C          62.6210   80.3302   12.6653 C.3     1  UNL1        0.1996
     26 S          62.7310   81.6576   13.3553 S.O2    1  UNL1        0.0558
     27 O          64.0334   81.9130   12.6563 O.2     1  UNL1       -0.1544
     28 O          61.4287   81.4022   14.0543 O.2     1  UNL1       -0.1544
@<TRIPOS>BOND
     1    25    26    1
     2    26    27    2
     3    26    28    2
     4    26    23    1
     5    23     1    1
     6     1     2   ar
     7     2     3   ar
     8     3     4   ar
     9     4     5   ar
    10     5     6   ar
    11     6     7   ar
    12     7     8   ar
    13     8     9   ar
    14     9    10   ar
    15    10    17    1
    16    17    18   ar
    17    18    19   ar
    18    19    20   ar
    19    20    21   ar
    20    21    22   ar
    21    10    11   ar
    22    11    12   ar
    23    12    13   ar
    24    13    14    2
    25    13    15   ar
    26    15    16   ar
    27    16     1   ar
    28    15     4   ar
    29    12     7   ar
    30    22    17   ar
    31    23    24    1
