@<TRIPOS>MOLECULE
*****
 35 38 0 0 0
SMALL
GASTEIGER

@<TRIPOS>ATOM
      1 C          64.6419   88.0274   14.6229 C.3     1  UNL1        0.0328
      2 C          63.8917   88.6554   13.4858 C.ar    1  UNL1        0.0002
      3 C          63.9389   90.1412   13.2859 C.ar    1  UNL1        0.0774
      4 N          63.1888   90.7692   12.1488 N.ar    1  UNL1       -0.2457
      5 C          62.3914   89.9112   11.2117 C.ar    1  UNL1        0.0814
      6 C          61.6412   90.5392   10.0746 C.ar    1  UNL1        0.0190
      7 C          60.8439   89.6813    9.1375 C.ar    1  UNL1        0.0054
      8 C          60.7967   88.1954    9.3375 C.ar    1  UNL1        0.0715
      9 C          61.5469   87.5675   10.4745 C.ar    1  UNL1        0.0055
     10 C          62.3442   88.4254   11.4116 C.ar    1  UNL1        0.0217
     11 C          63.0944   87.7974   12.5487 C.ar    1  UNL1        0.0526
     12 C          64.7363   90.9992   14.2230 C.ar    1  UNL1        0.0173
     13 C          64.2284   91.2694   15.6083 C.ar    1  UNL1        0.0015
     14 C          65.0257   92.1273   16.5454 C.ar    1  UNL1        0.0000
     15 C          66.3310   92.7149   16.0972 C.ar    1  UNL1        0.0000
     16 C          66.8389   92.4447   14.7120 C.ar    1  UNL1        0.0000
     17 C          66.0416   91.5868   13.7749 C.ar    1  UNL1        0.0015
     18 C          59.9994   87.3375    8.4003 C.3     1  UNL1        0.4186
     19 F          59.2020   86.4796    7.4631 F       1  UNL1       -0.1659
     20 F          60.5111   86.1079    9.0904 F       1  UNL1       -0.1659
     21 F          59.4876   88.5670    7.7102 F       1  UNL1       -0.1659
     22 C          63.0472   86.3116   12.7487 C.2     1  UNL1        0.2493
     23 O          63.1349   85.7378   14.1318 O.2     1  UNL1       -0.2698
     24 N          62.9124   85.3995   11.5654 N.am    1  UNL1       -0.2786
     25 H          62.8548   85.7761   10.6576 H       1  UNL1        0.1552
     26 C          62.8652   83.9136   11.7654 C.ar    1  UNL1        0.0784
     27 C          62.3468   83.3463   13.0535 C.ar    1  UNL1        0.0170
     28 C          62.2996   81.8604   13.2535 C.ar    1  UNL1        0.0025
     29 C          62.7708   80.9419   12.1653 C.ar    1  UNL1        0.0163
     30 C          63.2892   81.5092   10.8770 C.ar    1  UNL1        0.0320
     31 C          63.3364   82.9951   10.6771 C.ar    1  UNL1        0.1535
     32 F          63.8548   83.5624    9.3889 F       1  UNL1       -0.2029
     33 C          62.7236   79.4560   12.3652 C.2     1  UNL1        0.0729
     34 O          62.7049   78.5397   11.1777 O.co2   1  UNL1       -0.5446
     35 O          62.6952   78.8865   13.7526 O.co2   1  UNL1       -0.5446
@<TRIPOS>UNITY_ATOM_ATTR
34 1
charge -1
@<TRIPOS>BOND
     1     1     2    1
     2     2     3   ar
     3     3    12    1
     4    12    13   ar
     5    13    14   ar
     6    14    15   ar
     7    15    16   ar
     8    16    17   ar
     9     3     4   ar
    10     4     5   ar
    11     5     6   ar
    12     6     7   ar
    13     7     8   ar
    14     8    18    1
    15    18    19    1
    16    18    20    1
    17    18    21    1
    18     8     9   ar
    19     9    10   ar
    20    10    11   ar
    21    11    22    1
    22    22    23    2
    23    22    24   am
    24    24    26    1
    25    26    27   ar
    26    27    28   ar
    27    28    29   ar
    28    29    33    1
    29    33    34   ar
    30    33    35   ar
    31    29    30   ar
    32    30    31   ar
    33    31    32    1
    34    11     2   ar
    35    31    26   ar
    36    17    12   ar
    37    10     5   ar
    38    24    25    1
@<TRIPOS>MOLECULE
*****
 35 38 0 0 0
SMALL
GASTEIGER

@<TRIPOS>ATOM
      1 C          61.6876   84.1386   10.5807 C.3     1  UNL1        0.0328
      2 C          62.3795   84.8710   11.6920 C.ar    1  UNL1        0.0002
      3 C          62.8742   84.1190   12.8919 C.ar    1  UNL1        0.0774
      4 N          63.5660   84.8513   14.0032 N.ar    1  UNL1       -0.2457
      5 C          63.7633   86.3356   13.9147 C.ar    1  UNL1        0.0814
      6 C          64.4551   87.0679   15.0260 C.ar    1  UNL1        0.0190
      7 C          64.6523   88.5522   14.9374 C.ar    1  UNL1        0.0054
      8 C          64.1577   89.3043   13.7375 C.ar    1  UNL1        0.0715
      9 C          63.4658   88.5720   12.6262 C.ar    1  UNL1        0.0055
     10 C          63.2686   87.0877   12.7148 C.ar    1  UNL1        0.0217
     11 C          62.5767   86.3553   11.6034 C.ar    1  UNL1        0.0526
     12 C          62.6769   82.6346   12.9805 C.ar    1  UNL1        0.0173
     13 C          63.2179   81.7406   11.9044 C.ar    1  UNL1        0.0015
     14 C          63.0206   80.2563   11.9930 C.ar    1  UNL1        0.0000
     15 C          62.2824   79.6660   13.1577 C.ar    1  UNL1        0.0000
     16 C          61.7415   80.5600   14.2339 C.ar    1  UNL1        0.0000
     17 C          61.9388   82.0443   14.1453 C.ar    1  UNL1        0.0015
     18 C          64.3549   90.7886   13.6489 C.3     1  UNL1        0.4186
     19 F          64.5521   92.2730   13.5603 F       1  UNL1       -0.1659
     20 F          65.5640   90.6806   14.5300 F       1  UNL1       -0.1659
     21 F          63.1458   90.8967   12.7677 F       1  UNL1       -0.1659
     22 C          62.0821   87.1073   10.4035 C.2     1  UNL1        0.2493
     23 O          63.0256   87.4414    9.2864 O.2     1  UNL1       -0.2698
     24 N          60.6438   87.5252   10.3207 N.am    1  UNL1       -0.2786
     25 H          60.0245   87.3059   11.0540 H       1  UNL1        0.1552
     26 C          60.1491   88.2772    9.1208 C.ar    1  UNL1        0.0784
     27 C          60.3289   89.7642    9.0411 C.ar    1  UNL1        0.0170
     28 C          59.8343   90.5162    7.8412 C.ar    1  UNL1        0.0025
     29 C          59.1598   89.7812    6.7210 C.ar    1  UNL1        0.0163
     30 C          58.9800   88.2941    6.8007 C.ar    1  UNL1        0.0320
     31 C          59.4747   87.5421    8.0006 C.ar    1  UNL1        0.1535
     32 F          59.2949   86.0551    8.0803 F       1  UNL1       -0.2029
     33 C          58.6652   90.5332    5.5211 C.2     1  UNL1        0.0729
     34 O          59.6437   91.1722    4.5806 O.co2   1  UNL1       -0.5446
     35 O          57.1922   90.6463    5.2616 O.co2   1  UNL1       -0.5446
@<TRIPOS>UNITY_ATOM_ATTR
34 1
charge -1
@<TRIPOS>BOND
     1     1     2    1
     2     2     3   ar
     3     3    12    1
     4    12    13   ar
     5    13    14   ar
     6    14    15   ar
     7    15    16   ar
     8    16    17   ar
     9     3     4   ar
    10     4     5   ar
    11     5     6   ar
    12     6     7   ar
    13     7     8   ar
    14     8    18    1
    15    18    19    1
    16    18    20    1
    17    18    21    1
    18     8     9   ar
    19     9    10   ar
    20    10    11   ar
    21    11    22    1
    22    22    23    2
    23    22    24   am
    24    24    26    1
    25    26    27   ar
    26    27    28   ar
    27    28    29   ar
    28    29    33    1
    29    33    34   ar
    30    33    35   ar
    31    29    30   ar
    32    30    31   ar
    33    31    32    1
    34    11     2   ar
    35    31    26   ar
    36    17    12   ar
    37    10     5   ar
    38    24    25    1
@<TRIPOS>MOLECULE
*****
 35 38 0 0 0
SMALL
GASTEIGER

@<TRIPOS>ATOM
      1 C          63.7622   87.9019   13.0250 C.3     1  UNL1        0.0328
      2 C          62.7923   87.5120   11.9492 C.ar    1  UNL1        0.0002
      3 C          62.3041   86.0967   11.8566 C.ar    1  UNL1        0.0774
      4 N          61.3342   85.7068   10.7809 N.ar    1  UNL1       -0.2457
      5 C          60.8526   86.7322    9.7976 C.ar    1  UNL1        0.0814
      6 C          59.8827   86.3422    8.7219 C.ar    1  UNL1        0.0190
      7 C          59.4011   87.3676    7.7387 C.ar    1  UNL1        0.0054
      8 C          59.8894   88.7829    7.8313 C.ar    1  UNL1        0.0715
      9 C          60.8593   89.1728    8.9070 C.ar    1  UNL1        0.0055
     10 C          61.3409   88.1474    9.8902 C.ar    1  UNL1        0.0217
     11 C          62.3108   88.5373   10.9660 C.ar    1  UNL1        0.0526
     12 C          62.7857   85.0713   12.8399 C.ar    1  UNL1        0.0173
     13 C          62.1775   85.0015   14.2092 C.ar    1  UNL1        0.0015
     14 C          62.6591   83.9762   15.1924 C.ar    1  UNL1        0.0000
     15 C          63.7490   83.0206   14.8062 C.ar    1  UNL1        0.0000
     16 C          64.3571   83.0904   13.4368 C.ar    1  UNL1        0.0000
     17 C          63.8755   84.1157   12.4537 C.ar    1  UNL1        0.0015
     18 C          59.4078   89.8083    6.8480 C.3     1  UNL1        0.4186
     19 F          58.9262   90.8336    5.8648 F       1  UNL1       -0.1659
     20 F          58.0520   89.1666    6.8429 F       1  UNL1       -0.1659
     21 F          60.7636   90.4499    6.8531 F       1  UNL1       -0.1659
     22 C          62.7990   89.9526   11.0586 C.2     1  UNL1        0.2493
     23 O          61.8152   91.0838   11.1066 O.2     1  UNL1       -0.2698
     24 N          64.2713   90.2367   11.1033 N.am    1  UNL1       -0.2786
     25 H          64.9170   89.4942   11.0718 H       1  UNL1        0.1552
     26 C          64.7595   91.6519   11.1958 C.ar    1  UNL1        0.0784
     27 C          64.6308   92.5685   10.0155 C.ar    1  UNL1        0.0170
     28 C          65.1191   93.9837   10.1080 C.ar    1  UNL1        0.0025
     29 C          65.7361   94.4825   11.3810 C.ar    1  UNL1        0.0163
     30 C          65.8648   93.5660   12.5615 C.ar    1  UNL1        0.0320
     31 C          65.3766   92.1507   12.4689 C.ar    1  UNL1        0.1535
     32 F          65.5053   91.2342   13.6493 F       1  UNL1       -0.2029
     33 C          66.2244   95.8978   11.4736 C.2     1  UNL1        0.0729
     34 O          66.0732   96.6609   12.7562 O.co2   1  UNL1       -0.5446
     35 O          66.8638   96.5499   10.2837 O.co2   1  UNL1       -0.5446
@<TRIPOS>UNITY_ATOM_ATTR
34 1
charge -1
@<TRIPOS>BOND
     1     1     2    1
     2     2     3   ar
     3     3    12    1
     4    12    13   ar
     5    13    14   ar
     6    14    15   ar
     7    15    16   ar
     8    16    17   ar
     9     3     4   ar
    10     4     5   ar
    11     5     6   ar
    12     6     7   ar
    13     7     8   ar
    14     8    18    1
    15    18    19    1
    16    18    20    1
    17    18    21    1
    18     8     9   ar
    19     9    10   ar
    20    10    11   ar
    21    11    22    1
    22    22    23    2
    23    22    24   am
    24    24    26    1
    25    26    27   ar
    26    27    28   ar
    27    28    29   ar
    28    29    33    1
    29    33    34   ar
    30    33    35   ar
    31    29    30   ar
    32    30    31   ar
    33    31    32    1
    34    11     2   ar
    35    31    26   ar
    36    17    12   ar
    37    10     5   ar
    38    24    25    1
