@<TRIPOS>MOLECULE
*****
 30 33 0 0 0
SMALL
GASTEIGER

@<TRIPOS>ATOM
      1 C          65.1363   91.6498   12.5524 C.2     1  UNL1        0.2685
      2 O          65.3253   91.7663   11.0690 O.2     1  UNL1       -0.2682
      3 N          63.9990   90.8410   13.1023 N.am    1  UNL1       -0.2723
      4 C          63.0508   90.1487   12.1688 C.3     1  UNL1        0.0761
      5 C          61.9697   90.8058   11.3629 C.3     1  UNL1        0.0213
      6 C          61.2679   89.7410   10.5732 C.3     1  UNL1        0.0188
      7 C          60.1660   89.4890    9.5871 C.3     1  UNL1        0.0686
      8 N          60.1324   88.0180    9.2956 N.3     1  UNL1       -0.2975
      9 C          61.2134   87.3608   10.1015 C.3     1  UNL1        0.0686
     10 C          61.9152   88.4257   10.8912 C.3     1  UNL1        0.0188
     11 C          63.0171   88.6777   11.8773 C.3     1  UNL1        0.0213
     12 H          60.2960   87.8583    8.3016 H       1  UNL1        0.1232
     13 C          69.0288   92.5398   16.0073 C.3     1  UNL1        0.1321
     14 N          67.8738   92.7512   15.0740 N.ar    1  UNL1       -0.3057
     15 C          67.2139   94.0637   14.7709 C.ar    1  UNL1        0.1787
     16 N          66.1081   93.8109   13.7895 N.ar    1  UNL1       -0.2192
     17 C          66.0846   92.3422   13.4860 C.ar    1  UNL1        0.1535
     18 C          67.1758   91.6872   14.2798 C.ar    1  UNL1        0.1012
     19 C          63.8100   90.7246   14.5859 C.3     1  UNL1        0.1204
     20 C          63.7057   89.3714   15.2246 C.ar    1  UNL1       -0.0022
     21 C          63.0403   89.2220   16.5607 C.ar    1  UNL1       -0.0003
     22 C          62.9360   87.8687   17.1994 C.ar    1  UNL1        0.0293
     23 C          63.4971   86.6650   16.5020 C.ar    1  UNL1        0.1440
     24 F          63.3928   85.3118   17.1408 F       1  UNL1       -0.2042
     25 C          64.1624   86.8145   15.1661 C.ar    1  UNL1        0.0985
     26 C          64.2667   88.1677   14.5273 C.ar    1  UNL1        0.0035
     27 C          64.7235   85.6107   14.4687 C.3     1  UNL1        0.4207
     28 F          65.2844   84.4070   13.7713 F       1  UNL1       -0.1658
     29 F          63.3542   85.2657   13.9628 F       1  UNL1       -0.1658
     30 F          66.0927   85.9558   14.9746 F       1  UNL1       -0.1658
@<TRIPOS>BOND
     1    13    14    1
     2    14    15   ar
     3    15    16   ar
     4    16    17   ar
     5    17     1    1
     6     1     2    2
     7     1     3   am
     8     3    19    1
     9    19    20    1
    10    20    21   ar
    11    21    22   ar
    12    22    23   ar
    13    23    24    1
    14    23    25   ar
    15    25    27    1
    16    27    28    1
    17    27    29    1
    18    27    30    1
    19    25    26   ar
    20     4     3    1
    21     4     5    1
    22     6     5    1
    23     6     7    1
    24     7     8    1
    25     8     9    1
    26    10     9    1
    27    10    11    1
    28    17    18   ar
    29    18    14   ar
    30    26    20   ar
    31    11     4    1
    32    10     6    1
    33     8    12    1
@<TRIPOS>MOLECULE
*****
 30 33 0 0 0
SMALL
GASTEIGER

@<TRIPOS>ATOM
      1 C          65.7005   91.4149   13.6451 C.2     1  UNL1        0.2685
      2 O          66.7175   90.9637   14.6512 O.2     1  UNL1       -0.2682
      3 N          64.3684   90.7299   13.5662 N.am    1  UNL1       -0.2723
      4 C          64.0533   89.5937   14.4933 C.3     1  UNL1        0.0761
      5 C          64.4042   88.1521   14.2724 C.3     1  UNL1        0.0213
      6 C          63.8997   87.3669   15.4467 C.3     1  UNL1        0.0188
      7 C          63.8048   85.9908   16.0359 C.3     1  UNL1        0.0686
      8 N          63.0834   86.0966   17.3468 N.3     1  UNL1       -0.2975
      9 C          62.7325   87.5381   17.5678 C.3     1  UNL1        0.0686
     10 C          63.2370   88.3233   16.3935 C.3     1  UNL1        0.0188
     11 C          63.3320   89.6994   15.8043 C.3     1  UNL1        0.0213
     12 H          63.6861   85.7675   18.1010 H       1  UNL1        0.1232
     13 C          67.1599   94.1536    9.3731 C.3     1  UNL1        0.1321
     14 N          66.6865   93.8100   10.7544 N.ar    1  UNL1       -0.3057
     15 C          66.3150   94.7893   11.8281 C.ar    1  UNL1        0.1787
     16 N          65.9005   94.0112   13.0417 N.ar    1  UNL1       -0.2192
     17 C          66.0157   92.5512   12.7180 C.ar    1  UNL1        0.1535
     18 C          66.5016   92.4268   11.3043 C.ar    1  UNL1        0.1012
     19 C          63.3515   91.1812   12.5601 C.3     1  UNL1        0.1204
     20 C          62.4021   90.1890   11.9566 C.ar    1  UNL1       -0.0022
     21 C          60.9580   90.5497   11.7711 C.ar    1  UNL1       -0.0003
     22 C          60.0086   89.5574   11.1675 C.ar    1  UNL1        0.0293
     23 C          60.5035   88.2045   10.7495 C.ar    1  UNL1        0.1440
     24 F          59.5542   87.2122   10.1459 F       1  UNL1       -0.2042
     25 C          61.9476   87.8438   10.9350 C.ar    1  UNL1        0.0985
     26 C          62.8969   88.8360   11.5386 C.ar    1  UNL1        0.0035
     27 C          62.4424   86.4909   10.5170 C.3     1  UNL1        0.4207
     28 F          62.9373   85.1379   10.0991 F       1  UNL1       -0.1658
     29 F          62.3661   86.0233   11.9402 F       1  UNL1       -0.1658
     30 F          62.5188   86.9585    9.0939 F       1  UNL1       -0.1658
@<TRIPOS>BOND
     1    13    14    1
     2    14    15   ar
     3    15    16   ar
     4    16    17   ar
     5    17     1    1
     6     1     2    2
     7     1     3   am
     8     3    19    1
     9    19    20    1
    10    20    21   ar
    11    21    22   ar
    12    22    23   ar
    13    23    24    1
    14    23    25   ar
    15    25    27    1
    16    27    28    1
    17    27    29    1
    18    27    30    1
    19    25    26   ar
    20     4     3    1
    21     4     5    1
    22     6     5    1
    23     6     7    1
    24     7     8    1
    25     8     9    1
    26    10     9    1
    27    10    11    1
    28    17    18   ar
    29    18    14   ar
    30    26    20   ar
    31    11     4    1
    32    10     6    1
    33     8    12    1
@<TRIPOS>MOLECULE
*****
 30 33 0 0 0
SMALL
GASTEIGER

@<TRIPOS>ATOM
      1 C          64.1090   85.0011   13.8298 C.2     1  UNL1        0.2685
      2 O          65.3546   85.3612   14.5839 O.2     1  UNL1       -0.2682
      3 N          63.2511   86.0807   13.2396 N.am    1  UNL1       -0.2723
      4 C          63.6387   87.5203   13.4034 C.3     1  UNL1        0.0761
      5 C          64.3741   88.1080   14.5713 C.3     1  UNL1        0.0213
      6 C          64.5490   89.5761   14.3178 C.3     1  UNL1        0.0188
      7 C          65.1116   90.8466   14.8829 C.3     1  UNL1        0.0686
      8 N          64.8319   91.9514   13.9077 N.3     1  UNL1       -0.2975
      9 C          64.0966   91.3638   12.7398 C.3     1  UNL1        0.0686
     10 C          63.9217   89.8957   12.9933 C.3     1  UNL1        0.0188
     11 C          63.3591   88.6253   12.4281 C.3     1  UNL1        0.0213
     12 H          65.7094   92.3646   13.5918 H       1  UNL1        0.1232
     13 C          61.4719   80.4397   14.1772 C.3     1  UNL1        0.1321
     14 N          62.5092   81.4647   13.8257 N.ar    1  UNL1       -0.3057
     15 C          63.7402   81.2269   13.0023 C.ar    1  UNL1        0.1787
     16 N          64.4893   82.5227   12.9036 N.ar    1  UNL1       -0.2192
     17 C          63.7213   83.5613   13.6660 C.ar    1  UNL1        0.1535
     18 C          62.4975   82.9074   14.2359 C.ar    1  UNL1        0.1012
     19 C          62.0054   85.7205   12.4854 C.3     1  UNL1        0.1204
     20 C          62.0373   85.6199   10.9892 C.ar    1  UNL1       -0.0022
     21 C          63.0807   84.7783   10.3161 C.ar    1  UNL1       -0.0003
     22 C          63.1126   84.6776    8.8197 C.ar    1  UNL1        0.0293
     23 C          62.1010   85.4187    7.9966 C.ar    1  UNL1        0.1440
     24 F          62.1328   85.3181    6.5003 F       1  UNL1       -0.2042
     25 C          61.0576   86.2602    8.6697 C.ar    1  UNL1        0.0985
     26 C          61.0257   86.3608   10.1659 C.ar    1  UNL1        0.0035
     27 C          60.0460   87.0013    7.8465 C.3     1  UNL1        0.4207
     28 F          59.0345   87.7423    7.0233 F       1  UNL1       -0.1658
     29 F          60.6303   88.3053    8.3025 F       1  UNL1       -0.1658
     30 F          59.4618   85.6972    7.3905 F       1  UNL1       -0.1658
@<TRIPOS>BOND
     1    13    14    1
     2    14    15   ar
     3    15    16   ar
     4    16    17   ar
     5    17     1    1
     6     1     2    2
     7     1     3   am
     8     3    19    1
     9    19    20    1
    10    20    21   ar
    11    21    22   ar
    12    22    23   ar
    13    23    24    1
    14    23    25   ar
    15    25    27    1
    16    27    28    1
    17    27    29    1
    18    27    30    1
    19    25    26   ar
    20     4     3    1
    21     4     5    1
    22     6     5    1
    23     6     7    1
    24     7     8    1
    25     8     9    1
    26    10     9    1
    27    10    11    1
    28    17    18   ar
    29    18    14   ar
    30    26    20   ar
    31    11     4    1
    32    10     6    1
    33     8    12    1
@<TRIPOS>MOLECULE
*****
 30 33 0 0 0
SMALL
GASTEIGER

@<TRIPOS>ATOM
      1 C          64.1385   84.9565   13.6010 C.2     1  UNL1        0.2685
      2 O          65.4854   85.2955   14.1674 O.2     1  UNL1       -0.2682
      3 N          63.1941   86.0524   13.2049 N.am    1  UNL1       -0.2723
      4 C          63.5964   87.4872   13.3752 C.3     1  UNL1        0.0761
      5 C          63.3620   88.5919   12.3879 C.3     1  UNL1        0.0213
      6 C          63.9246   89.8569   12.9652 C.3     1  UNL1        0.0188
      7 C          64.1274   91.3213   12.7118 C.3     1  UNL1        0.0686
      8 N          64.8350   91.9036   13.8994 N.3     1  UNL1       -0.2975
      9 C          65.0695   90.7990   14.8868 C.3     1  UNL1        0.0686
     10 C          64.5068   89.5340   14.3094 C.3     1  UNL1        0.0188
     11 C          64.3041   88.0695   14.5628 C.3     1  UNL1        0.0213
     12 H          64.2587   92.6304   14.3236 H       1  UNL1        0.1232
     13 C          61.5410   80.3817   14.0539 C.3     1  UNL1        0.1321
     14 N          62.5422   81.4187   13.6389 N.ar    1  UNL1       -0.3057
     15 C          63.6916   81.2080   12.6985 C.ar    1  UNL1        0.1787
     16 N          64.4295   82.5076   12.5699 N.ar    1  UNL1       -0.2192
     17 C          63.7362   83.5215   13.4307 C.ar    1  UNL1        0.1535
     18 C          62.5697   82.8486   14.0914 C.ar    1  UNL1        0.1012
     19 C          61.8471   85.7133   12.6384 C.3     1  UNL1        0.1204
     20 C          61.4583   86.2122   11.2783 C.ar    1  UNL1       -0.0022
     21 C          60.5689   87.4128   11.1458 C.ar    1  UNL1       -0.0003
     22 C          60.1801   87.9117    9.7856 C.ar    1  UNL1        0.0293
     23 C          60.6808   87.2100    8.5581 C.ar    1  UNL1        0.1440
     24 F          60.2921   87.7089    7.1979 F       1  UNL1       -0.2042
     25 C          61.5702   86.0095    8.6906 C.ar    1  UNL1        0.0985
     26 C          61.9590   85.5106   10.0507 C.ar    1  UNL1        0.0035
     27 C          62.0709   85.3078    7.4630 C.3     1  UNL1        0.4207
     28 F          62.5717   84.6061    6.2355 F       1  UNL1       -0.1658
     29 F          63.4847   85.5344    7.9102 F       1  UNL1       -0.1658
     30 F          60.6572   85.0812    7.0159 F       1  UNL1       -0.1658
@<TRIPOS>BOND
     1    13    14    1
     2    14    15   ar
     3    15    16   ar
     4    16    17   ar
     5    17     1    1
     6     1     2    2
     7     1     3   am
     8     3    19    1
     9    19    20    1
    10    20    21   ar
    11    21    22   ar
    12    22    23   ar
    13    23    24    1
    14    23    25   ar
    15    25    27    1
    16    27    28    1
    17    27    29    1
    18    27    30    1
    19    25    26   ar
    20     4     3    1
    21     4     5    1
    22     6     5    1
    23     6     7    1
    24     7     8    1
    25     8     9    1
    26    10     9    1
    27    10    11    1
    28    17    18   ar
    29    18    14   ar
    30    26    20   ar
    31    11     4    1
    32    10     6    1
    33     8    12    1
@<TRIPOS>MOLECULE
*****
 30 33 0 0 0
SMALL
GASTEIGER

@<TRIPOS>ATOM
      1 C          62.3760   89.4633   12.3947 C.2     1  UNL1        0.2685
      2 O          61.3601   90.3072   11.6834 O.2     1  UNL1       -0.2682
      3 N          62.6392   88.0599   11.9354 N.am    1  UNL1       -0.2723
      4 C          61.8866   87.5003   10.7648 C.3     1  UNL1        0.0761
      5 C          60.4285   87.7019   10.4760 C.3     1  UNL1        0.0213
      6 C          60.1007   86.9670    9.2101 C.3     1  UNL1        0.0188
      7 C          58.9970   86.6375    8.2493 C.3     1  UNL1        0.0686
      8 N          59.5704   85.7779    7.1619 N.3     1  UNL1       -0.2975
      9 C          61.0284   85.5762    7.4507 C.3     1  UNL1        0.0686
     10 C          61.3562   86.3111    8.7166 C.3     1  UNL1        0.0188
     11 C          62.4599   86.6407    9.6774 C.3     1  UNL1        0.0213
     12 H          59.4569   86.2397    6.2596 H       1  UNL1        0.1232
     13 C          65.9538   92.0464   15.2942 C.3     1  UNL1        0.1321
     14 N          64.7731   91.2103   14.8981 N.ar    1  UNL1       -0.3057
     15 C          63.8002   90.5584   15.8353 C.ar    1  UNL1        0.1787
     16 N          62.7838   89.8246   15.0116 N.ar    1  UNL1       -0.2192
     17 C          63.1285   90.0230   13.5654 C.ar    1  UNL1        0.1535
     18 C          64.3580   90.8795   13.4952 C.ar    1  UNL1        0.1012
     19 C          63.6550   87.2160   12.6468 C.3     1  UNL1        0.1204
     20 C          63.3011   85.8256   13.0843 C.ar    1  UNL1       -0.0022
     21 C          62.8841   85.5687   14.5021 C.ar    1  UNL1       -0.0003
     22 C          62.5301   84.1782   14.9395 C.ar    1  UNL1        0.0293
     23 C          62.5932   83.0447   13.9591 C.ar    1  UNL1        0.1440
     24 F          62.2392   81.6542   14.3965 F       1  UNL1       -0.2042
     25 C          63.0101   83.3016   12.5414 C.ar    1  UNL1        0.0985
     26 C          63.3641   84.6921   12.1039 C.ar    1  UNL1        0.0035
     27 C          63.0731   82.1681   11.5609 C.3     1  UNL1        0.4207
     28 F          63.1360   81.0346   10.5805 F       1  UNL1       -0.1658
     29 F          61.7005   81.7306   11.9786 F       1  UNL1       -0.1658
     30 F          64.4456   82.6056   11.1433 F       1  UNL1       -0.1658
@<TRIPOS>BOND
     1    13    14    1
     2    14    15   ar
     3    15    16   ar
     4    16    17   ar
     5    17     1    1
     6     1     2    2
     7     1     3   am
     8     3    19    1
     9    19    20    1
    10    20    21   ar
    11    21    22   ar
    12    22    23   ar
    13    23    24    1
    14    23    25   ar
    15    25    27    1
    16    27    28    1
    17    27    29    1
    18    27    30    1
    19    25    26   ar
    20     4     3    1
    21     4     5    1
    22     6     5    1
    23     6     7    1
    24     7     8    1
    25     8     9    1
    26    10     9    1
    27    10    11    1
    28    17    18   ar
    29    18    14   ar
    30    26    20   ar
    31    11     4    1
    32    10     6    1
    33     8    12    1
@<TRIPOS>MOLECULE
*****
 30 33 0 0 0
SMALL
GASTEIGER

@<TRIPOS>ATOM
      1 C          64.0680   91.0582   11.9461 C.2     1  UNL1        0.2685
      2 O          65.1567   91.6138   11.0767 O.2     1  UNL1       -0.2682
      3 N          64.2048   91.1020   13.4392 N.am    1  UNL1       -0.2723
      4 C          65.4302   91.7013   14.0628 C.3     1  UNL1        0.0761
      5 C          66.4829   90.9574   14.8299 C.3     1  UNL1        0.0213
      6 C          67.5215   91.9462   15.2701 C.3     1  UNL1        0.0188
      7 C          68.8139   92.0975   16.0162 C.3     1  UNL1        0.0686
      8 N          69.2018   93.5460   15.9823 N.3     1  UNL1       -0.2975
      9 C          68.1491   94.2900   15.2152 C.3     1  UNL1        0.0686
     10 C          67.1106   93.3013   14.7751 C.3     1  UNL1        0.0188
     11 C          65.8181   93.1500   14.0290 C.3     1  UNL1        0.0213
     12 H          70.1056   93.6517   15.5213 H       1  UNL1        0.1232
     13 C          60.7081   87.5999    9.7939 C.3     1  UNL1        0.1321
     14 N          61.2982   88.8693   10.3331 N.ar    1  UNL1       -0.3057
     15 C          60.6155   90.2035   10.3921 C.ar    1  UNL1        0.1787
     16 N          61.5700   91.1859   11.0035 N.ar    1  UNL1       -0.2192
     17 C          62.8425   90.4588   11.3224 C.ar    1  UNL1        0.1535
     18 C          62.6746   89.0270   10.9081 C.ar    1  UNL1        0.1012
     19 C          63.1160   90.5464   14.3087 C.3     1  UNL1        0.1204
     20 C          63.3212   89.2468   15.0290 C.ar    1  UNL1       -0.0022
     21 C          62.9117   89.1128   16.4658 C.ar    1  UNL1       -0.0003
     22 C          63.1169   87.8131   17.1862 C.ar    1  UNL1        0.0293
     23 C          63.7317   86.6476   16.4696 C.ar    1  UNL1        0.1440
     24 F          63.9370   85.3479   17.1900 F       1  UNL1       -0.2042
     25 C          64.1413   86.7815   15.0329 C.ar    1  UNL1        0.0985
     26 C          63.9360   88.0811   14.3126 C.ar    1  UNL1        0.0035
     27 C          64.7561   85.6159   14.3164 C.3     1  UNL1        0.4207
     28 F          65.3708   84.4503   13.5999 F       1  UNL1       -0.1658
     29 F          63.4429   85.3339   13.6485 F       1  UNL1       -0.1658
     30 F          66.0692   85.8979   14.9843 F       1  UNL1       -0.1658
@<TRIPOS>BOND
     1    13    14    1
     2    14    15   ar
     3    15    16   ar
     4    16    17   ar
     5    17     1    1
     6     1     2    2
     7     1     3   am
     8     3    19    1
     9    19    20    1
    10    20    21   ar
    11    21    22   ar
    12    22    23   ar
    13    23    24    1
    14    23    25   ar
    15    25    27    1
    16    27    28    1
    17    27    29    1
    18    27    30    1
    19    25    26   ar
    20     4     3    1
    21     4     5    1
    22     6     5    1
    23     6     7    1
    24     7     8    1
    25     8     9    1
    26    10     9    1
    27    10    11    1
    28    17    18   ar
    29    18    14   ar
    30    26    20   ar
    31    11     4    1
    32    10     6    1
    33     8    12    1
@<TRIPOS>MOLECULE
*****
 30 33 0 0 0
SMALL
GASTEIGER

@<TRIPOS>ATOM
      1 C          63.5972   90.9397   11.5478 C.2     1  UNL1        0.2685
      2 O          64.4468   91.9334   10.8124 O.2     1  UNL1       -0.2682
      3 N          63.9464   90.5494   12.9534 N.am    1  UNL1       -0.2723
      4 C          65.1450   91.1527   13.6236 C.3     1  UNL1        0.0761
      5 C          66.4441   91.5013   12.9597 C.3     1  UNL1        0.0213
      6 C          67.3570   92.0774   14.0012 C.3     1  UNL1        0.0188
      7 C          68.7241   92.6489   14.2345 C.3     1  UNL1        0.0686
      8 N          68.8341   93.0097   15.6863 N.3     1  UNL1       -0.2975
      9 C          67.5350   92.6611   16.3503 C.3     1  UNL1        0.0686
     10 C          66.6221   92.0850   15.3088 C.3     1  UNL1        0.0188
     11 C          65.2550   91.5135   15.0755 C.3     1  UNL1        0.0213
     12 H          69.0145   94.0090   15.7819 H       1  UNL1        0.1232
     13 C          60.5286   87.7505    8.6681 C.3     1  UNL1        0.1321
     14 N          60.9881   88.8704    9.5539 N.ar    1  UNL1       -0.3057
     15 C          60.1202   89.9452   10.1383 C.ar    1  UNL1        0.1787
     16 N          60.9920   90.8511   10.9564 N.ar    1  UNL1       -0.2192
     17 C          62.3986   90.3363   10.8776 C.ar    1  UNL1        0.1535
     18 C          62.3962   89.1121   10.0108 C.ar    1  UNL1        0.1012
     19 C          63.0968   89.5556   13.6888 C.3     1  UNL1        0.1204
     20 C          63.5567   88.1349   13.8301 C.ar    1  UNL1       -0.0022
     21 C          64.4689   87.7504   14.9572 C.ar    1  UNL1       -0.0003
     22 C          64.9289   86.3296   15.0985 C.ar    1  UNL1        0.0293
     23 C          64.4767   85.2935   14.1126 C.ar    1  UNL1        0.1440
     24 F          64.9367   83.8727   14.2539 F       1  UNL1       -0.2042
     25 C          63.5646   85.6779   12.9857 C.ar    1  UNL1        0.0985
     26 C          63.1046   87.0987   12.8444 C.ar    1  UNL1        0.0035
     27 C          63.1124   84.6417   11.9998 C.3     1  UNL1        0.4207
     28 F          62.6603   83.6055   11.0140 F       1  UNL1       -0.1658
     29 F          64.4954   84.0615   11.9754 F       1  UNL1       -0.1658
     30 F          61.7295   85.2219   12.0242 F       1  UNL1       -0.1658
@<TRIPOS>BOND
     1    13    14    1
     2    14    15   ar
     3    15    16   ar
     4    16    17   ar
     5    17     1    1
     6     1     2    2
     7     1     3   am
     8     3    19    1
     9    19    20    1
    10    20    21   ar
    11    21    22   ar
    12    22    23   ar
    13    23    24    1
    14    23    25   ar
    15    25    27    1
    16    27    28    1
    17    27    29    1
    18    27    30    1
    19    25    26   ar
    20     4     3    1
    21     4     5    1
    22     6     5    1
    23     6     7    1
    24     7     8    1
    25     8     9    1
    26    10     9    1
    27    10    11    1
    28    17    18   ar
    29    18    14   ar
    30    26    20   ar
    31    11     4    1
    32    10     6    1
    33     8    12    1
@<TRIPOS>MOLECULE
*****
 30 33 0 0 0
SMALL
GASTEIGER

@<TRIPOS>ATOM
      1 C          63.6657   87.0769   15.3540 C.2     1  UNL1        0.2685
      2 O          63.5161   86.3118   16.6355 O.2     1  UNL1       -0.2682
      3 N          63.6017   86.3576   14.0393 N.am    1  UNL1       -0.2723
      4 C          63.3881   84.8733   14.0061 C.3     1  UNL1        0.0761
      5 C          64.3947   83.8470   13.5777 C.3     1  UNL1        0.0213
      6 C          63.7590   82.4941   13.7022 C.3     1  UNL1        0.0188
      7 C          63.9884   81.0236   13.5144 C.3     1  UNL1        0.0686
      8 N          62.7306   80.3050   13.9037 N.3     1  UNL1       -0.2975
      9 C          61.7239   81.3312   14.3321 C.3     1  UNL1        0.0686
     10 C          62.3596   82.6842   14.2075 C.3     1  UNL1        0.0188
     11 C          62.1302   84.1546   14.3953 C.3     1  UNL1        0.0213
     12 H          62.9220   79.6651   14.6746 H       1  UNL1        0.1232
     13 C          65.6235   91.8908   14.4192 C.3     1  UNL1        0.1321
     14 N          64.7792   90.7739   14.9577 N.ar    1  UNL1       -0.3057
     15 C          63.6371   90.9168   15.9194 C.ar    1  UNL1        0.1787
     16 N          63.0809   89.5492   16.1850 N.ar    1  UNL1       -0.2192
     17 C          63.8793   88.5612   15.3874 C.ar    1  UNL1        0.1535
     18 C          64.9290   89.3181   14.6288 C.ar    1  UNL1        0.1012
     19 C          63.7513   87.1228   12.7578 C.3     1  UNL1        0.1204
     20 C          62.5672   87.3170   11.8577 C.ar    1  UNL1       -0.0022
     21 C          62.2304   86.2804   10.8272 C.ar    1  UNL1       -0.0003
     22 C          61.0462   86.4747    9.9271 C.ar    1  UNL1        0.0293
     23 C          60.1989   87.7056   10.0577 C.ar    1  UNL1        0.1440
     24 F          59.0147   87.8998    9.1576 F       1  UNL1       -0.2042
     25 C          60.5357   88.7421   11.0882 C.ar    1  UNL1        0.0985
     26 C          61.7198   88.5479   11.9882 C.ar    1  UNL1        0.0035
     27 C          59.6884   89.9730   11.2187 C.3     1  UNL1        0.4207
     28 F          58.8411   91.2039   11.3493 F       1  UNL1       -0.1658
     29 F          59.1515   89.4649   12.5239 F       1  UNL1       -0.1658
     30 F          60.2253   90.4811    9.9136 F       1  UNL1       -0.1658
@<TRIPOS>BOND
     1    13    14    1
     2    14    15   ar
     3    15    16   ar
     4    16    17   ar
     5    17     1    1
     6     1     2    2
     7     1     3   am
     8     3    19    1
     9    19    20    1
    10    20    21   ar
    11    21    22   ar
    12    22    23   ar
    13    23    24    1
    14    23    25   ar
    15    25    27    1
    16    27    28    1
    17    27    29    1
    18    27    30    1
    19    25    26   ar
    20     4     3    1
    21     4     5    1
    22     6     5    1
    23     6     7    1
    24     7     8    1
    25     8     9    1
    26    10     9    1
    27    10    11    1
    28    17    18   ar
    29    18    14   ar
    30    26    20   ar
    31    11     4    1
    32    10     6    1
    33     8    12    1
@<TRIPOS>MOLECULE
*****
 30 33 0 0 0
SMALL
GASTEIGER

@<TRIPOS>ATOM
      1 C          63.4228   85.0664   14.3056 C.2     1  UNL1        0.2685
      2 O          63.7324   85.5714   15.6837 O.2     1  UNL1       -0.2682
      3 N          63.4149   86.0149   13.1436 N.am    1  UNL1       -0.2723
      4 C          63.7165   87.4682   13.3595 C.3     1  UNL1        0.0761
      5 C          64.3865   88.0601   14.5640 C.3     1  UNL1        0.0213
      6 C          64.4852   89.5426   14.3579 C.3     1  UNL1        0.0188
      7 C          64.9602   90.8247   14.9749 C.3     1  UNL1        0.0686
      8 N          64.6448   91.9413   14.0243 N.3     1  UNL1       -0.2975
      9 C          63.9748   91.3494   12.8198 C.3     1  UNL1        0.0686
     10 C          63.8762   89.8669   13.0260 C.3     1  UNL1        0.0188
     11 C          63.4011   88.5849   12.4089 C.3     1  UNL1        0.0213
     12 H          65.5057   92.4119   13.7453 H       1  UNL1        0.1232
     13 C          60.8963   80.4329   14.1383 C.3     1  UNL1        0.1321
     14 N          61.9599   81.4832   14.0128 N.ar    1  UNL1       -0.3057
     15 C          63.3540   81.2697   13.5021 C.ar    1  UNL1        0.1787
     16 N          64.0717   82.5860   13.5497 N.ar    1  UNL1       -0.2192
     17 C          63.1212   83.6130   14.0897 C.ar    1  UNL1        0.1535
     18 C          61.8160   82.9315   14.3759 C.ar    1  UNL1        0.1012
     19 C          63.1053   85.5098   11.7654 C.3     1  UNL1        0.1204
     20 C          62.1022   86.2272   10.9116 C.ar    1  UNL1       -0.0022
     21 C          61.8270   85.7501    9.5163 C.ar    1  UNL1       -0.0003
     22 C          60.8238   86.4676    8.6625 C.ar    1  UNL1        0.0293
     23 C          60.0960   87.6621    9.2040 C.ar    1  UNL1        0.1440
     24 F          59.0928   88.3796    8.3501 F       1  UNL1       -0.2042
     25 C          60.3711   88.1392   10.5991 C.ar    1  UNL1        0.0985
     26 C          61.3742   87.4218   11.4530 C.ar    1  UNL1        0.0035
     27 C          59.6432   89.3338   11.1406 C.3     1  UNL1        0.4207
     28 F          58.9153   90.5284   11.6820 F       1  UNL1       -0.1658
     29 F          60.3328   90.2091   10.1365 F       1  UNL1       -0.1658
     30 F          58.9536   88.4585   12.1447 F       1  UNL1       -0.1658
@<TRIPOS>BOND
     1    13    14    1
     2    14    15   ar
     3    15    16   ar
     4    16    17   ar
     5    17     1    1
     6     1     2    2
     7     1     3   am
     8     3    19    1
     9    19    20    1
    10    20    21   ar
    11    21    22   ar
    12    22    23   ar
    13    23    24    1
    14    23    25   ar
    15    25    27    1
    16    27    28    1
    17    27    29    1
    18    27    30    1
    19    25    26   ar
    20     4     3    1
    21     4     5    1
    22     6     5    1
    23     6     7    1
    24     7     8    1
    25     8     9    1
    26    10     9    1
    27    10    11    1
    28    17    18   ar
    29    18    14   ar
    30    26    20   ar
    31    11     4    1
    32    10     6    1
    33     8    12    1
