@<TRIPOS>MOLECULE
*****
 42 46 0 0 0
SMALL
GASTEIGER

@<TRIPOS>ATOM
      1 N          62.8931   84.2880   14.2506 N.pl3   1  UNL1       -0.2598
      2 C          62.9766   84.4607   15.7382 C.2     1  UNL1        0.1681
      3 N          63.2943   85.8061   16.3203 N.2     1  UNL1       -0.2278
      4 C          63.5285   86.9788   15.4148 C.ar    1  UNL1        0.0806
      5 C          63.8462   88.3243   15.9970 C.ar    1  UNL1        0.0146
      6 C          64.0804   89.4969   15.0914 C.ar    1  UNL1       -0.0204
      7 C          64.3981   90.8423   15.6736 C.3     1  UNL1        0.0311
      8 C          63.9969   89.3241   13.6037 C.ar    1  UNL1       -0.0040
      9 C          63.6792   87.9787   13.0216 C.ar    1  UNL1       -0.0010
     10 C          63.4450   86.8061   13.9271 C.ar    1  UNL1        0.0225
     11 C          63.1273   85.4607   13.3450 C.3     1  UNL1        0.1793
     12 C          63.5835   80.7114   10.5450 C.3     1  UNL1        0.0311
     13 C          62.9206   81.1543   11.8156 C.ar    1  UNL1       -0.0198
     14 C          61.9400   80.2517   12.5040 C.ar    1  UNL1        0.0072
     15 C          61.2771   80.6945   13.7746 C.ar    1  UNL1        0.0586
     16 CL         60.2966   79.7920   14.4630 Cl      1  UNL1       -0.0822
     17 C          61.5948   82.0400   14.3568 C.ar    1  UNL1        0.0263
     18 C          62.5754   82.9425   13.6684 C.ar    1  UNL1        0.0540
     19 C          63.2383   82.4996   12.3978 C.ar    1  UNL1        0.0107
     20 C          64.2311   90.4968   12.6982 C.ar    1  UNL1        0.0021
     21 C          63.4829   90.6051   11.4026 C.ar    1  UNL1        0.0296
     22 C          63.7171   91.7778   10.4970 C.ar    1  UNL1        0.1403
     23 F          62.9689   91.8861    9.2015 F       1  UNL1       -0.2042
     24 C          64.6995   92.8421   10.8871 C.ar    1  UNL1        0.0341
     25 C          65.4476   92.7338   12.1827 C.ar    1  UNL1        0.0554
     26 C          65.2134   91.5611   13.0882 C.ar    1  UNL1        0.0046
     27 C          66.4300   93.7981   12.5727 C.2     1  UNL1        0.2428
     28 N          66.9657   93.8476   13.9729 N.am    1  UNL1       -0.3253
     29 O          66.8767   94.8130   11.5624 O.2     1  UNL1       -0.2704
     30 H          66.6725   93.1815   14.6359 H       1  UNL1        0.1453
     31 H          67.6105   94.5462   14.2288 H       1  UNL1        0.1453
     32 C          63.0438   85.2879   11.8573 C.2     1  UNL1        0.2485
     33 O          64.0854   84.4850   11.1359 O.2     1  UNL1       -0.2727
     34 N          61.9187   85.9180   11.0911 N.am    1  UNL1       -0.2748
     35 C          60.8771   86.7208   11.8126 C.3     1  UNL1        0.1150
     36 C          61.8351   85.7452    9.6034 C.3     1  UNL1        0.1091
     37 C          60.8256   86.5242    8.8134 C.3     1  UNL1        0.0741
     38 C          60.7169   88.0190    8.7523 C.3     1  UNL1        0.0189
     39 C          59.5716   88.3638    7.8470 C.3     1  UNL1        0.0185
     40 C          58.9725   87.0820    7.3486 C.3     1  UNL1        0.0686
     41 N          59.7475   85.9451    7.9459 N.3     1  UNL1       -0.2972
     42 H          60.1648   85.3831    7.2040 H       1  UNL1        0.1233
@<TRIPOS>BOND
     1    12    13    1
     2    13    14   ar
     3    14    15   ar
     4    15    16    1
     5    15    17   ar
     6    17    18   ar
     7    18     1    1
     8     1     2    1
     9     2     3    2
    10     3     4    1
    11     4     5   ar
    12     5     6   ar
    13     6     7    1
    14     6     8   ar
    15     8    20    1
    16    20    21   ar
    17    21    22   ar
    18    22    23    1
    19    22    24   ar
    20    24    25   ar
    21    25    27    1
    22    27    28   am
    23    27    29    2
    24    25    26   ar
    25     8     9   ar
    26     9    10   ar
    27    10    11    1
    28    11    32    1
    29    32    33    2
    30    32    34   am
    31    34    35    1
    32    34    36    1
    33    37    36    1
    34    37    38    1
    35    38    39    1
    36    39    40    1
    37    40    41    1
    38    18    19   ar
    39    19    13   ar
    40    11     1    1
    41    41    37    1
    42    10     4   ar
    43    26    20   ar
    44    28    30    1
    45    28    31    1
    46    41    42    1
@<TRIPOS>MOLECULE
*****
 42 46 0 0 0
SMALL
GASTEIGER

@<TRIPOS>ATOM
      1 N          62.5224   84.1432   14.6819 N.pl3   1  UNL1       -0.2598
      2 C          62.0655   84.3007   16.1019 C.2     1  UNL1        0.1681
      3 N          62.2323   85.6168   16.8018 N.2     1  UNL1       -0.2278
      4 C          62.8560   86.7754   16.0817 C.ar    1  UNL1        0.0806
      5 C          63.0228   88.0916   16.7817 C.ar    1  UNL1        0.0146
      6 C          63.6465   89.2503   16.0616 C.ar    1  UNL1       -0.0204
      7 C          63.8133   90.5664   16.7615 C.3     1  UNL1        0.0311
      8 C          64.1034   89.0928   14.6416 C.ar    1  UNL1       -0.0040
      9 C          63.9366   87.7766   13.9417 C.ar    1  UNL1       -0.0010
     10 C          63.3129   86.6180   14.6617 C.ar    1  UNL1        0.0225
     11 C          63.1461   85.3018   13.9618 C.3     1  UNL1        0.1793
     12 C          60.2153   79.5017   14.3157 C.3     1  UNL1        0.0311
     13 C          61.2021   80.5063   13.7989 C.ar    1  UNL1       -0.0198
     14 C          62.0220   80.1947   12.5820 C.ar    1  UNL1        0.0072
     15 C          63.0088   81.1992   12.0651 C.ar    1  UNL1        0.0586
     16 CL         63.8287   80.8877   10.8484 Cl      1  UNL1       -0.0822
     17 C          63.1756   82.5154   12.7651 C.ar    1  UNL1        0.0263
     18 C          62.3556   82.8270   13.9819 C.ar    1  UNL1        0.0540
     19 C          61.3689   81.8224   14.4988 C.ar    1  UNL1        0.0107
     20 C          64.7272   90.2514   13.9215 C.ar    1  UNL1        0.0021
     21 C          64.1137   90.7637   12.6521 C.ar    1  UNL1        0.0296
     22 C          64.7374   91.9224   11.9320 C.ar    1  UNL1        0.1403
     23 F          64.1240   92.4347   10.6627 F       1  UNL1       -0.2042
     24 C          65.9746   92.5687   12.4813 C.ar    1  UNL1        0.0341
     25 C          66.5880   92.0564   13.7506 C.ar    1  UNL1        0.0554
     26 C          65.9643   90.8977   14.4707 C.ar    1  UNL1        0.0046
     27 C          67.8252   92.7027   14.2999 C.2     1  UNL1        0.2428
     28 N          69.1780   92.1871   13.9076 N.am    1  UNL1       -0.3253
     29 O          67.7095   93.8647   15.2414 O.2     1  UNL1       -0.2704
     30 H          69.2540   91.4245   13.2896 H       1  UNL1        0.1453
     31 H          69.9900   92.6113   14.2681 H       1  UNL1        0.1453
     32 C          63.6031   85.1443   12.5418 C.2     1  UNL1        0.2485
     33 O          64.9306   84.5113   12.2469 O.2     1  UNL1       -0.2727
     34 N          62.7324   85.6197   11.4166 N.am    1  UNL1       -0.2748
     35 C          61.4048   86.2527   11.7116 C.3     1  UNL1        0.1150
     36 C          63.1892   85.4622    9.9967 C.3     1  UNL1        0.1091
     37 C          62.1917   85.5147    8.8776 C.3     1  UNL1        0.0741
     38 C          62.3628   84.9112    7.5151 C.3     1  UNL1        0.0189
     39 C          61.1248   85.2034    6.7200 C.3     1  UNL1        0.0185
     40 C          60.1886   85.9874    7.5912 C.3     1  UNL1        0.0686
     41 N          60.8480   86.1798    8.9247 N.3     1  UNL1       -0.2972
     42 H          60.2779   85.7568    9.6570 H       1  UNL1        0.1233
@<TRIPOS>BOND
     1    12    13    1
     2    13    14   ar
     3    14    15   ar
     4    15    16    1
     5    15    17   ar
     6    17    18   ar
     7    18     1    1
     8     1     2    1
     9     2     3    2
    10     3     4    1
    11     4     5   ar
    12     5     6   ar
    13     6     7    1
    14     6     8   ar
    15     8    20    1
    16    20    21   ar
    17    21    22   ar
    18    22    23    1
    19    22    24   ar
    20    24    25   ar
    21    25    27    1
    22    27    28   am
    23    27    29    2
    24    25    26   ar
    25     8     9   ar
    26     9    10   ar
    27    10    11    1
    28    11    32    1
    29    32    33    2
    30    32    34   am
    31    34    35    1
    32    34    36    1
    33    37    36    1
    34    37    38    1
    35    38    39    1
    36    39    40    1
    37    40    41    1
    38    18    19   ar
    39    19    13   ar
    40    11     1    1
    41    41    37    1
    42    10     4   ar
    43    26    20   ar
    44    28    30    1
    45    28    31    1
    46    41    42    1
@<TRIPOS>MOLECULE
*****
 42 46 0 0 0
SMALL
GASTEIGER

@<TRIPOS>ATOM
      1 N          62.5340   84.1925   14.6909 N.pl3   1  UNL1       -0.2598
      2 C          62.0520   84.3349   16.1042 C.2     1  UNL1        0.1681
      3 N          62.2156   85.6404   16.8244 N.2     1  UNL1       -0.2278
      4 C          62.8612   86.8036   16.1313 C.ar    1  UNL1        0.0806
      5 C          63.0248   88.1092   16.8516 C.ar    1  UNL1        0.0146
      6 C          63.6704   89.2723   16.1586 C.ar    1  UNL1       -0.0204
      7 C          63.8340   90.5778   16.8788 C.3     1  UNL1        0.0311
      8 C          64.1523   89.1298   14.7452 C.ar    1  UNL1       -0.0040
      9 C          63.9887   87.8243   14.0250 C.ar    1  UNL1       -0.0010
     10 C          63.3431   86.6612   14.7181 C.ar    1  UNL1        0.0225
     11 C          63.1795   85.3556   13.9979 C.3     1  UNL1        0.1793
     12 C          60.3019   79.5162   14.3025 C.3     1  UNL1        0.0311
     13 C          61.2543   80.5488   13.7765 C.ar    1  UNL1       -0.0198
     14 C          62.0431   80.2758   12.5301 C.ar    1  UNL1        0.0072
     15 C          62.9955   81.3083   12.0040 C.ar    1  UNL1        0.0586
     16 CL         63.7843   81.0354   10.7578 Cl      1  UNL1       -0.0822
     17 C          63.1591   82.6139   12.7243 C.ar    1  UNL1        0.0263
     18 C          62.3704   82.8869   13.9706 C.ar    1  UNL1        0.0540
     19 C          61.4180   81.8543   14.4967 C.ar    1  UNL1        0.0107
     20 C          64.7979   90.2930   14.0522 C.ar    1  UNL1        0.0021
     21 C          65.9595   90.9956   14.6902 C.ar    1  UNL1        0.0296
     22 C          66.6051   92.1588   13.9972 C.ar    1  UNL1        0.1403
     23 F          67.7667   92.8614   14.6351 F       1  UNL1       -0.2042
     24 C          66.0891   92.6193   12.6661 C.ar    1  UNL1        0.0341
     25 C          64.9275   91.9166   12.0281 C.ar    1  UNL1        0.0554
     26 C          64.2820   90.7535   12.7212 C.ar    1  UNL1        0.0046
     27 C          64.4116   92.3771   10.6971 C.2     1  UNL1        0.2428
     28 N          65.0301   93.5661   10.0235 N.am    1  UNL1       -0.3253
     29 O          63.2770   91.6486   10.0396 O.2     1  UNL1       -0.2704
     30 H          65.7747   94.0443   10.4550 H       1  UNL1        0.1453
     31 H          64.6914   93.8684    9.1499 H       1  UNL1        0.1453
     32 C          63.6615   85.2132   12.5845 C.2     1  UNL1        0.2485
     33 O          64.9948   84.5846   12.3065 O.2     1  UNL1       -0.2727
     34 N          62.8102   85.6993   11.4492 N.am    1  UNL1       -0.2748
     35 C          61.4769   86.3279   11.7273 C.3     1  UNL1        0.1150
     36 C          63.2921   85.5569   10.0359 C.3     1  UNL1        0.1091
     37 C          62.3072   85.5528    8.9045 C.3     1  UNL1        0.0741
     38 C          60.9873   86.2651    8.8820 C.3     1  UNL1        0.0189
     39 C          60.3337   85.9883    7.5605 C.3     1  UNL1        0.0185
     40 C          61.2497   85.1049    6.7664 C.3     1  UNL1        0.0686
     41 N          62.4694   84.8358    7.5970 N.3     1  UNL1       -0.2972
     42 H          63.2996   85.1795    7.1143 H       1  UNL1        0.1233
@<TRIPOS>BOND
     1    12    13    1
     2    13    14   ar
     3    14    15   ar
     4    15    16    1
     5    15    17   ar
     6    17    18   ar
     7    18     1    1
     8     1     2    1
     9     2     3    2
    10     3     4    1
    11     4     5   ar
    12     5     6   ar
    13     6     7    1
    14     6     8   ar
    15     8    20    1
    16    20    21   ar
    17    21    22   ar
    18    22    23    1
    19    22    24   ar
    20    24    25   ar
    21    25    27    1
    22    27    28   am
    23    27    29    2
    24    25    26   ar
    25     8     9   ar
    26     9    10   ar
    27    10    11    1
    28    11    32    1
    29    32    33    2
    30    32    34   am
    31    34    35    1
    32    34    36    1
    33    37    36    1
    34    37    38    1
    35    38    39    1
    36    39    40    1
    37    40    41    1
    38    18    19   ar
    39    19    13   ar
    40    11     1    1
    41    41    37    1
    42    10     4   ar
    43    26    20   ar
    44    28    30    1
    45    28    31    1
    46    41    42    1
