@<TRIPOS>MOLECULE
*****
 27 29 0 0 0
SMALL
GASTEIGER

@<TRIPOS>ATOM
      1 N          63.2803   89.9851   11.5495 N.am    1  UNL1       -0.2184
      2 C          62.6230   90.6511   10.3772 C.2     1  UNL1        0.2546
      3 O          62.8742   92.0522    9.9041 O.2     1  UNL1       -0.2723
      4 C          61.6702   89.6700    9.7610 C.3     1  UNL1        0.1795
      5 N          61.7388   88.3976   10.5525 N.am    1  UNL1       -0.2783
      6 C          62.7339   88.5924   11.6579 C.2     1  UNL1        0.1482
      7 S          63.1155   87.5734   12.6903 S.2     1  UNL1       -0.0177
      8 C          66.1294   92.4001   12.8914 C.ar    1  UNL1        0.1531
      9 C          65.1054   91.7819   11.9863 C.ar    1  UNL1        0.0534
     10 C          64.3044   90.6034   12.4547 C.ar    1  UNL1        0.0628
     11 C          64.5274   90.0430   13.8280 C.ar    1  UNL1        0.0168
     12 C          65.5514   90.6612   14.7331 C.ar    1  UNL1        0.0189
     13 C          66.3525   91.8398   14.2647 C.ar    1  UNL1        0.0825
     14 N          67.3765   92.4580   15.1699 N.pl3   1  UNL1       -0.3017
     15 C          66.9627   93.0181   16.4984 C.3     1  UNL1        0.1123
     16 C          68.8143   92.5161   14.7464 C.3     1  UNL1        0.1123
     17 C          66.2600   94.6903   11.6715 C.3     1  UNL1        0.2525
     18 O          66.9304   93.5787   12.4230 O.3     1  UNL1       -0.4701
     19 C          60.9506   87.1496   10.2855 C.3     1  UNL1        0.1205
     20 C          61.2320   86.3328    9.0593 C.ar    1  UNL1        0.0084
     21 C          62.5692   85.6754    8.8866 C.ar    1  UNL1        0.0005
     22 C          62.8505   84.8587    7.6603 C.ar    1  UNL1        0.0294
     23 C          61.7947   84.6993    6.6068 C.ar    1  UNL1        0.1410
     24 F          62.0761   83.8825    5.3805 F       1  UNL1       -0.2041
     25 C          60.4576   85.3566    6.7796 C.ar    1  UNL1        0.0408
     26 C          60.1762   86.1734    8.0058 C.ar    1  UNL1        0.0575
     27 CL         58.8391   86.8308    8.1786 Cl      1  UNL1       -0.0824
@<TRIPOS>BOND
     1    17    18    1
     2    18     8    1
     3     8     9   ar
     4     9    10   ar
     5    10     1    1
     6     1     2   am
     7     2     3    2
     8     2     4    1
     9     4     5    1
    10     5    19    1
    11    19    20    1
    12    20    21   ar
    13    21    22   ar
    14    22    23   ar
    15    23    24    1
    16    23    25   ar
    17    25    26   ar
    18    26    27    1
    19     5     6    1
    20     6     7    2
    21    10    11   ar
    22    11    12   ar
    23    12    13   ar
    24    13    14    1
    25    14    15    1
    26    14    16    1
    27    13     8   ar
    28     6     1    1
    29    26    20   ar
@<TRIPOS>MOLECULE
*****
 27 29 0 0 0
SMALL
GASTEIGER

@<TRIPOS>ATOM
      1 N          63.1269   88.2338   12.2867 N.am    1  UNL1       -0.2184
      2 C          62.6643   89.2393   11.2743 C.2     1  UNL1        0.2546
      3 O          62.0506   88.9298    9.9410 O.2     1  UNL1       -0.2723
      4 C          62.9231   90.6086   11.8292 C.3     1  UNL1        0.1795
      5 N          63.5457   90.4494   13.1846 N.am    1  UNL1       -0.2783
      6 C          63.6717   88.9817   13.4673 C.2     1  UNL1        0.1482
      7 S          64.2422   88.3694   14.7121 S.2     1  UNL1       -0.0177
      8 C          63.6592   84.3682   13.0103 C.ar    1  UNL1        0.1531
      9 C          63.7291   85.8597   13.1533 C.ar    1  UNL1        0.0534
     10 C          63.0570   86.7422   12.1436 C.ar    1  UNL1        0.0628
     11 C          62.3152   86.1333   10.9909 C.ar    1  UNL1        0.0168
     12 C          62.2454   84.6418   10.8479 C.ar    1  UNL1        0.0189
     13 C          62.9174   83.7592   11.8576 C.ar    1  UNL1        0.0825
     14 N          62.8475   82.2676   11.7145 N.pl3   1  UNL1       -0.3017
     15 C          63.4828   81.5970   10.5328 C.3     1  UNL1        0.1123
     16 C          62.1424   81.4468   12.7532 C.3     1  UNL1        0.1123
     17 C          63.9575   83.5844   15.4693 C.3     1  UNL1        0.2525
     18 O          64.3312   83.4856   14.0200 O.3     1  UNL1       -0.4701
     19 C          63.9682   91.5625   14.0970 C.3     1  UNL1        0.1205
     20 C          65.4256   91.8530   14.3008 C.ar    1  UNL1        0.0084
     21 C          66.3840   91.7220   13.1543 C.ar    1  UNL1        0.0005
     22 C          67.8413   92.0124   13.3581 C.ar    1  UNL1        0.0294
     23 C          68.3404   92.4339   14.7084 C.ar    1  UNL1        0.1410
     24 F          69.7979   92.7243   14.9123 F       1  UNL1       -0.2041
     25 C          67.3821   92.5649   15.8549 C.ar    1  UNL1        0.0408
     26 C          65.9247   92.2744   15.6511 C.ar    1  UNL1        0.0575
     27 CL         64.9663   92.4054   16.7976 Cl      1  UNL1       -0.0824
@<TRIPOS>BOND
     1    17    18    1
     2    18     8    1
     3     8     9   ar
     4     9    10   ar
     5    10     1    1
     6     1     2   am
     7     2     3    2
     8     2     4    1
     9     4     5    1
    10     5    19    1
    11    19    20    1
    12    20    21   ar
    13    21    22   ar
    14    22    23   ar
    15    23    24    1
    16    23    25   ar
    17    25    26   ar
    18    26    27    1
    19     5     6    1
    20     6     7    2
    21    10    11   ar
    22    11    12   ar
    23    12    13   ar
    24    13    14    1
    25    14    15    1
    26    14    16    1
    27    13     8   ar
    28     6     1    1
    29    26    20   ar
@<TRIPOS>MOLECULE
*****
 27 29 0 0 0
SMALL
GASTEIGER

@<TRIPOS>ATOM
      1 N          63.1317   90.6535   12.5750 N.am    1  UNL1       -0.2184
      2 C          62.0755   89.9587   13.3823 C.2     1  UNL1        0.2546
      3 O          62.1340   89.6769   14.8545 O.2     1  UNL1       -0.2723
      4 C          60.9506   89.5951   12.4591 C.3     1  UNL1        0.1795
      5 N          61.3116   90.0652   11.0811 N.am    1  UNL1       -0.2783
      6 C          62.6595   90.7193   11.1528 C.2     1  UNL1        0.1482
      7 S          63.4045   91.3317   10.0039 S.2     1  UNL1       -0.0177
      8 C          66.3748   92.9079   12.9622 C.ar    1  UNL1        0.1531
      9 C          65.0747   92.3728   12.4392 C.ar    1  UNL1        0.0534
     10 C          64.4318   91.1885   13.0981 C.ar    1  UNL1        0.0628
     11 C          65.0888   90.5394   14.2799 C.ar    1  UNL1        0.0168
     12 C          66.3888   91.0744   14.8029 C.ar    1  UNL1        0.0189
     13 C          67.0318   92.2587   14.1441 C.ar    1  UNL1        0.0825
     14 N          68.3319   92.7938   14.6671 N.pl3   1  UNL1       -0.3017
     15 C          69.6285   92.3170   14.0828 C.3     1  UNL1        0.1123
     16 C          68.3353   93.8056   15.7745 C.3     1  UNL1        0.1123
     17 C          66.3054   94.8141   11.1982 C.3     1  UNL1        0.2525
     18 O          67.0177   94.0922   12.3034 O.3     1  UNL1       -0.4701
     19 C          60.4720   89.9087    9.8480 C.3     1  UNL1        0.1205
     20 C          60.4414   88.5958    9.1232 C.ar    1  UNL1        0.0084
     21 C          61.1739   87.4126    9.6832 C.ar    1  UNL1        0.0005
     22 C          61.1433   86.0998    8.9584 C.ar    1  UNL1        0.0294
     23 C          60.3803   85.9701    7.6735 C.ar    1  UNL1        0.1410
     24 F          60.3497   84.6572    6.9486 F       1  UNL1       -0.2041
     25 C          59.6479   87.1532    7.1134 C.ar    1  UNL1        0.0408
     26 C          59.6784   88.4661    7.8383 C.ar    1  UNL1        0.0575
     27 CL         58.9460   89.6492    7.2782 Cl      1  UNL1       -0.0824
@<TRIPOS>BOND
     1    17    18    1
     2    18     8    1
     3     8     9   ar
     4     9    10   ar
     5    10     1    1
     6     1     2   am
     7     2     3    2
     8     2     4    1
     9     4     5    1
    10     5    19    1
    11    19    20    1
    12    20    21   ar
    13    21    22   ar
    14    22    23   ar
    15    23    24    1
    16    23    25   ar
    17    25    26   ar
    18    26    27    1
    19     5     6    1
    20     6     7    2
    21    10    11   ar
    22    11    12   ar
    23    12    13   ar
    24    13    14    1
    25    14    15    1
    26    14    16    1
    27    13     8   ar
    28     6     1    1
    29    26    20   ar
@<TRIPOS>MOLECULE
*****
 27 29 0 0 0
SMALL
GASTEIGER

@<TRIPOS>ATOM
      1 N          63.4308   90.7114   12.0173 N.am    1  UNL1       -0.2184
      2 C          63.6016   90.4219   13.4791 C.2     1  UNL1        0.2546
      3 O          62.8179   89.4228   14.2776 O.2     1  UNL1       -0.2723
      4 C          64.6939   91.3068   14.0024 C.3     1  UNL1        0.1795
      5 N          65.1981   92.1434   12.8639 N.am    1  UNL1       -0.2783
      6 C          64.4175   91.7754   11.6371 C.2     1  UNL1        0.1482
      7 S          64.5927   92.3674   10.2701 S.2     1  UNL1       -0.0177
      8 C          61.7913   88.0731    9.5472 C.ar    1  UNL1        0.1531
      9 C          62.7758   88.7318   10.4673 C.ar    1  UNL1        0.0534
     10 C          62.4461   90.0527   11.0972 C.ar    1  UNL1        0.0628
     11 C          61.1319   90.7148   10.8069 C.ar    1  UNL1        0.0168
     12 C          60.1473   90.0560    9.8868 C.ar    1  UNL1        0.0189
     13 C          60.4770   88.7352    9.2569 C.ar    1  UNL1        0.0825
     14 N          59.4924   88.0764    8.3368 N.pl3   1  UNL1       -0.3017
     15 C          59.0233   88.7913    7.1043 C.3     1  UNL1        0.1123
     16 C          58.9768   86.7029    8.6491 C.3     1  UNL1        0.1123
     17 C          62.4072   85.5600    9.7813 C.3     1  UNL1        0.2525
     18 O          62.1210   86.7523    8.9174 O.3     1  UNL1       -0.4701
     19 C          66.2910   93.1680   12.9392 C.3     1  UNL1        0.1205
     20 C          66.6451   93.9773   11.7268 C.ar    1  UNL1        0.0084
     21 C          66.0979   95.3645   11.5651 C.ar    1  UNL1        0.0005
     22 C          66.4520   96.1737   10.3529 C.ar    1  UNL1        0.0294
     23 C          67.3531   95.5957    9.3022 C.ar    1  UNL1        0.1410
     24 F          67.7072   96.4050    8.0898 F       1  UNL1       -0.2041
     25 C          67.9002   94.2085    9.4639 C.ar    1  UNL1        0.0408
     26 C          67.5462   93.3992   10.6762 C.ar    1  UNL1        0.0575
     27 CL         68.0933   92.0120   10.8379 Cl      1  UNL1       -0.0824
@<TRIPOS>BOND
     1    17    18    1
     2    18     8    1
     3     8     9   ar
     4     9    10   ar
     5    10     1    1
     6     1     2   am
     7     2     3    2
     8     2     4    1
     9     4     5    1
    10     5    19    1
    11    19    20    1
    12    20    21   ar
    13    21    22   ar
    14    22    23   ar
    15    23    24    1
    16    23    25   ar
    17    25    26   ar
    18    26    27    1
    19     5     6    1
    20     6     7    2
    21    10    11   ar
    22    11    12   ar
    23    12    13   ar
    24    13    14    1
    25    14    15    1
    26    14    16    1
    27    13     8   ar
    28     6     1    1
    29    26    20   ar
@<TRIPOS>MOLECULE
*****
 27 29 0 0 0
SMALL
GASTEIGER

@<TRIPOS>ATOM
      1 N          63.6461   90.0793   11.9324 N.am    1  UNL1       -0.2184
      2 C          63.8522   89.1554   13.0960 C.2     1  UNL1        0.2546
      3 O          64.7939   89.3776   14.2422 O.2     1  UNL1       -0.2723
      4 C          62.9513   87.9703   12.9122 C.3     1  UNL1        0.1795
      5 N          62.1884   88.1617   11.6349 N.am    1  UNL1       -0.2783
      6 C          62.6178   89.4651   11.0294 C.2     1  UNL1        0.1482
      7 S          62.1083   90.0514    9.7462 S.2     1  UNL1       -0.0177
      8 C          65.7293   93.3837   12.6330 C.ar    1  UNL1        0.1531
      9 C          65.0299   92.0754   12.8546 C.ar    1  UNL1        0.0534
     10 C          64.3454   91.3877   11.7107 C.ar    1  UNL1        0.0628
     11 C          64.3603   92.0082   10.3452 C.ar    1  UNL1        0.0168
     12 C          65.0596   93.3165   10.1236 C.ar    1  UNL1        0.0189
     13 C          65.7441   94.0043   11.2675 C.ar    1  UNL1        0.0825
     14 N          66.4435   95.3127   11.0458 N.pl3   1  UNL1       -0.3017
     15 C          67.4760   95.4375    9.9648 C.3     1  UNL1        0.1123
     16 C          66.1104   96.4962   11.9050 C.3     1  UNL1        0.1123
     17 C          67.2616   93.2806   14.7285 C.3     1  UNL1        0.2525
     18 O          66.4138   94.0715   13.7768 O.3     1  UNL1       -0.4701
     19 C          61.1742   87.2157   11.0635 C.3     1  UNL1        0.1205
     20 C          61.4637   86.4893    9.7834 C.ar    1  UNL1        0.0084
     21 C          62.7400   85.7159    9.6321 C.ar    1  UNL1        0.0005
     22 C          63.0294   84.9896    8.3521 C.ar    1  UNL1        0.0294
     23 C          62.0426   85.0365    7.2234 C.ar    1  UNL1        0.1410
     24 F          62.3321   84.3101    5.9433 F       1  UNL1       -0.2041
     25 C          60.7664   85.8098    7.3747 C.ar    1  UNL1        0.0408
     26 C          60.4768   86.5362    8.6548 C.ar    1  UNL1        0.0575
     27 CL         59.2005   87.3096    8.8061 Cl      1  UNL1       -0.0824
@<TRIPOS>BOND
     1    17    18    1
     2    18     8    1
     3     8     9   ar
     4     9    10   ar
     5    10     1    1
     6     1     2   am
     7     2     3    2
     8     2     4    1
     9     4     5    1
    10     5    19    1
    11    19    20    1
    12    20    21   ar
    13    21    22   ar
    14    22    23   ar
    15    23    24    1
    16    23    25   ar
    17    25    26   ar
    18    26    27    1
    19     5     6    1
    20     6     7    2
    21    10    11   ar
    22    11    12   ar
    23    12    13   ar
    24    13    14    1
    25    14    15    1
    26    14    16    1
    27    13     8   ar
    28     6     1    1
    29    26    20   ar
@<TRIPOS>MOLECULE
*****
 27 29 0 0 0
SMALL
GASTEIGER

@<TRIPOS>ATOM
      1 N          61.1404   87.5210    9.2942 N.am    1  UNL1       -0.2184
      2 C          61.3560   88.9546    9.6794 C.2     1  UNL1        0.2546
      3 O          62.2718   89.4491   10.7596 O.2     1  UNL1       -0.2723
      4 C          60.4951   89.8068    8.7949 C.3     1  UNL1        0.1795
      5 N          59.7473   88.9000    7.8629 N.am    1  UNL1       -0.2783
      6 C          60.1462   87.4873    8.1715 C.2     1  UNL1        0.1482
      7 S          59.6397   86.2569    7.4790 S.2     1  UNL1       -0.0177
      8 C          62.3288   84.8953   12.0224 C.ar    1  UNL1        0.1531
      9 C          61.6666   86.0860   11.3951 C.ar    1  UNL1        0.0534
     10 C          61.8028   86.3302    9.9214 C.ar    1  UNL1        0.0628
     11 C          62.6013   85.3837    9.0750 C.ar    1  UNL1        0.0168
     12 C          63.2635   84.1930    9.7023 C.ar    1  UNL1        0.0189
     13 C          63.1273   83.9488   11.1760 C.ar    1  UNL1        0.0825
     14 N          63.7897   82.7580   11.8032 N.pl3   1  UNL1       -0.3017
     15 C          65.1349   82.9027   12.4509 C.3     1  UNL1        0.1123
     16 C          63.1068   81.4226   11.7827 C.3     1  UNL1        0.1123
     17 C          63.2670   85.1132   14.4354 C.3     1  UNL1        0.2525
     18 O          62.1926   84.6511   13.4961 O.3     1  UNL1       -0.4701
     19 C          58.7720   89.3303    6.8077 C.3     1  UNL1        0.1205
     20 C          59.1735   90.3546    5.7882 C.ar    1  UNL1        0.0084
     21 C          60.6246   90.5774    5.4800 C.ar    1  UNL1        0.0005
     22 C          61.0260   91.6017    4.4605 C.ar    1  UNL1        0.0294
     23 C          59.9766   92.4034    3.7492 C.ar    1  UNL1        0.1410
     24 F          60.3781   93.4278    2.7296 F       1  UNL1       -0.2041
     25 C          58.5256   92.1806    4.0573 C.ar    1  UNL1        0.0408
     26 C          58.1241   91.1563    5.0768 C.ar    1  UNL1        0.0575
     27 CL         56.6731   90.9335    5.3850 Cl      1  UNL1       -0.0824
@<TRIPOS>BOND
     1    17    18    1
     2    18     8    1
     3     8     9   ar
     4     9    10   ar
     5    10     1    1
     6     1     2   am
     7     2     3    2
     8     2     4    1
     9     4     5    1
    10     5    19    1
    11    19    20    1
    12    20    21   ar
    13    21    22   ar
    14    22    23   ar
    15    23    24    1
    16    23    25   ar
    17    25    26   ar
    18    26    27    1
    19     5     6    1
    20     6     7    2
    21    10    11   ar
    22    11    12   ar
    23    12    13   ar
    24    13    14    1
    25    14    15    1
    26    14    16    1
    27    13     8   ar
    28     6     1    1
    29    26    20   ar
@<TRIPOS>MOLECULE
*****
 27 29 0 0 0
SMALL
GASTEIGER

@<TRIPOS>ATOM
      1 N          63.5128   89.9069   11.9378 N.am    1  UNL1       -0.2184
      2 C          62.7868   90.3851   10.7154 C.2     1  UNL1        0.2546
      3 O          62.9324   91.7333   10.0743 O.2     1  UNL1       -0.2723
      4 C          61.8895   89.2782   10.2465 C.3     1  UNL1        0.1795
      5 N          62.0610   88.1159   11.1792 N.am    1  UNL1       -0.2783
      6 C          63.0642   88.5045   12.2244 C.2     1  UNL1        0.1482
      7 S          63.5361   87.6421   13.3574 S.2     1  UNL1       -0.0177
      8 C          66.2496   92.6181   12.8913 C.ar    1  UNL1        0.1531
      9 C          65.2505   91.8320   12.0953 C.ar    1  UNL1        0.0534
     10 C          64.5120   90.6931   12.7338 C.ar    1  UNL1        0.0628
     11 C          64.7726   90.3405   14.1682 C.ar    1  UNL1        0.0168
     12 C          65.7717   91.1267   14.9642 C.ar    1  UNL1        0.0189
     13 C          66.5102   92.2655   14.3257 C.ar    1  UNL1        0.0825
     14 N          67.5094   93.0517   15.1218 N.pl3   1  UNL1       -0.3017
     15 C          67.5815   94.5425   14.9722 C.3     1  UNL1        0.1123
     16 C          68.4364   92.3471   16.0674 C.3     1  UNL1        0.1123
     17 C          66.3043   94.6147   11.2298 C.3     1  UNL1        0.2525
     18 O          66.9881   93.7570   12.2528 O.3     1  UNL1       -0.4701
     19 C          61.3535   86.7968   11.0834 C.3     1  UNL1        0.1205
     20 C          62.1416   85.5355   10.8882 C.ar    1  UNL1        0.0084
     21 C          62.3510   84.5963   12.0389 C.ar    1  UNL1        0.0005
     22 C          63.1391   83.3351   11.8436 C.ar    1  UNL1        0.0294
     23 C          63.7177   83.0130   10.4978 C.ar    1  UNL1        0.1410
     24 F          64.5059   81.7517   10.3025 F       1  UNL1       -0.2041
     25 C          63.5084   83.9522    9.3471 C.ar    1  UNL1        0.0408
     26 C          62.7203   85.2135    9.5423 C.ar    1  UNL1        0.0575
     27 CL         62.5109   86.1527    8.3917 Cl      1  UNL1       -0.0824
@<TRIPOS>BOND
     1    17    18    1
     2    18     8    1
     3     8     9   ar
     4     9    10   ar
     5    10     1    1
     6     1     2   am
     7     2     3    2
     8     2     4    1
     9     4     5    1
    10     5    19    1
    11    19    20    1
    12    20    21   ar
    13    21    22   ar
    14    22    23   ar
    15    23    24    1
    16    23    25   ar
    17    25    26   ar
    18    26    27    1
    19     5     6    1
    20     6     7    2
    21    10    11   ar
    22    11    12   ar
    23    12    13   ar
    24    13    14    1
    25    14    15    1
    26    14    16    1
    27    13     8   ar
    28     6     1    1
    29    26    20   ar
@<TRIPOS>MOLECULE
*****
 27 29 0 0 0
SMALL
GASTEIGER

@<TRIPOS>ATOM
      1 N          63.6486   85.8401   13.2235 N.am    1  UNL1       -0.2184
      2 C          64.3964   86.3040   14.4382 C.2     1  UNL1        0.2546
      3 O          65.0621   85.4232   15.4535 O.2     1  UNL1       -0.2723
      4 C          64.3615   87.8034   14.4595 C.3     1  UNL1        0.1795
      5 N          63.5921   88.2663   13.2578 N.am    1  UNL1       -0.2783
      6 C          63.1516   87.0528   12.4940 C.2     1  UNL1        0.1482
      7 S          62.3540   87.0523   11.2236 S.2     1  UNL1       -0.0177
      8 C          62.5244   82.0353   13.3235 C.ar    1  UNL1        0.1531
      9 C          62.7377   83.4615   13.7362 C.ar    1  UNL1        0.0534
     10 C          63.4353   84.4138   12.8107 C.ar    1  UNL1        0.0628
     11 C          63.9195   83.9399   11.4725 C.ar    1  UNL1        0.0168
     12 C          63.7062   82.5137   11.0598 C.ar    1  UNL1        0.0189
     13 C          63.0086   81.5614   11.9853 C.ar    1  UNL1        0.0825
     14 N          62.7953   80.1351   11.5725 N.pl3   1  UNL1       -0.3017
     15 C          62.7645   79.7721   10.1174 C.3     1  UNL1        0.1123
     16 C          62.6128   79.0720   12.6148 C.3     1  UNL1        0.1123
     17 C          60.3560   80.8309   14.0966 C.3     1  UNL1        0.2525
     18 O          61.8268   81.0830   14.2490 O.3     1  UNL1       -0.4701
     19 C          63.3125   89.6921   12.8854 C.3     1  UNL1        0.1205
     20 C          64.2723   90.7735   13.2844 C.ar    1  UNL1        0.0084
     21 C          64.7789   90.8440   14.6946 C.ar    1  UNL1        0.0005
     22 C          65.7387   91.9254   15.0935 C.ar    1  UNL1        0.0294
     23 C          66.1920   92.9364   14.0824 C.ar    1  UNL1        0.1410
     24 F          67.1519   94.0178   14.4814 F       1  UNL1       -0.2041
     25 C          65.6855   92.8659   12.6724 C.ar    1  UNL1        0.0408
     26 C          64.7256   91.7845   12.2733 C.ar    1  UNL1        0.0575
     27 CL         64.2191   91.7141   10.8632 Cl      1  UNL1       -0.0824
@<TRIPOS>BOND
     1    17    18    1
     2    18     8    1
     3     8     9   ar
     4     9    10   ar
     5    10     1    1
     6     1     2   am
     7     2     3    2
     8     2     4    1
     9     4     5    1
    10     5    19    1
    11    19    20    1
    12    20    21   ar
    13    21    22   ar
    14    22    23   ar
    15    23    24    1
    16    23    25   ar
    17    25    26   ar
    18    26    27    1
    19     5     6    1
    20     6     7    2
    21    10    11   ar
    22    11    12   ar
    23    12    13   ar
    24    13    14    1
    25    14    15    1
    26    14    16    1
    27    13     8   ar
    28     6     1    1
    29    26    20   ar
@<TRIPOS>MOLECULE
*****
 27 29 0 0 0
SMALL
GASTEIGER

@<TRIPOS>ATOM
      1 N          63.3165   87.3104   15.5254 N.am    1  UNL1       -0.2184
      2 C          63.1674   87.8581   16.9138 C.2     1  UNL1        0.2546
      3 O          62.8630   87.0616   18.1479 O.2     1  UNL1       -0.2723
      4 C          63.3760   89.3422   16.8516 C.3     1  UNL1        0.1795
      5 N          63.6541   89.7118   15.4246 N.am    1  UNL1       -0.2783
      6 C          63.6173   88.4560   14.6050 C.2     1  UNL1        0.1482
      7 S          63.8419   88.3623   13.1249 S.2     1  UNL1       -0.0177
      8 C          63.7271   83.9336   13.4812 C.ar    1  UNL1        0.1531
      9 C          63.8561   85.3740   13.8794 C.ar    1  UNL1        0.0534
     10 C          63.1875   85.8699   15.1272 C.ar    1  UNL1        0.0628
     11 C          62.3899   84.9255   15.9768 C.ar    1  UNL1        0.0168
     12 C          62.2609   83.4851   15.5786 C.ar    1  UNL1        0.0189
     13 C          62.9295   82.9892   14.3308 C.ar    1  UNL1        0.0825
     14 N          62.8005   81.5487   13.9326 N.pl3   1  UNL1       -0.3017
     15 C          61.4418   80.9343   13.7702 C.3     1  UNL1        0.1123
     16 C          64.0302   80.7227   13.6969 C.3     1  UNL1        0.1123
     17 C          63.6424   83.4166   10.9365 C.3     1  UNL1        0.2525
     18 O          64.3957   83.4376   12.2334 O.3     1  UNL1       -0.4701
     19 C          63.9219   91.0943   14.9080 C.3     1  UNL1        0.1205
     20 C          65.3186   91.6413   14.9184 C.ar    1  UNL1        0.0084
     21 C          66.2172   91.4261   13.7368 C.ar    1  UNL1        0.0005
     22 C          67.6138   91.9731   13.7474 C.ar    1  UNL1        0.0294
     23 C          68.1118   92.7354   14.9394 C.ar    1  UNL1        0.1410
     24 F          69.5085   93.2824   14.9499 F       1  UNL1       -0.2041
     25 C          67.2132   92.9505   16.1209 C.ar    1  UNL1        0.0408
     26 C          65.8166   92.4035   16.1105 C.ar    1  UNL1        0.0575
     27 CL         64.9179   92.6187   17.2921 Cl      1  UNL1       -0.0824
@<TRIPOS>BOND
     1    17    18    1
     2    18     8    1
     3     8     9   ar
     4     9    10   ar
     5    10     1    1
     6     1     2   am
     7     2     3    2
     8     2     4    1
     9     4     5    1
    10     5    19    1
    11    19    20    1
    12    20    21   ar
    13    21    22   ar
    14    22    23   ar
    15    23    24    1
    16    23    25   ar
    17    25    26   ar
    18    26    27    1
    19     5     6    1
    20     6     7    2
    21    10    11   ar
    22    11    12   ar
    23    12    13   ar
    24    13    14    1
    25    14    15    1
    26    14    16    1
    27    13     8   ar
    28     6     1    1
    29    26    20   ar
