@<TRIPOS>MOLECULE
*****
 37 41 0 0 0
SMALL
GASTEIGER

@<TRIPOS>ATOM
      1 C          59.6462   89.4266    6.9872 C.2     1  UNL1        0.3203
      2 N          60.3534   89.9426    8.2052 N.2     1  UNL1       -0.0600
      3 C          60.8861   88.9819    9.2265 C.3     1  UNL1        0.2689
      4 C          60.7117   87.5051    9.0298 C.2     1  UNL1        0.1165
      5 C          60.0045   86.9890    7.8117 C.2     1  UNL1        0.1177
      6 C          59.8300   85.5123    7.6150 C.3     1  UNL1        0.0754
      7 N          59.4718   87.9499    6.7905 N.pl3   1  UNL1       -0.2028
      8 H          59.0076   87.6112    5.9910 H       1  UNL1        0.2982
      9 C          61.5933   89.4979   10.4445 C.ar    1  UNL1        0.0582
     10 C          63.0282   89.9260   10.3536 C.ar    1  UNL1        0.0033
     11 C          63.7353   90.4420   11.5716 C.ar    1  UNL1        0.0114
     12 C          63.0079   90.5301   12.8805 C.ar    1  UNL1        0.0599
     13 CL         63.7150   91.0461   14.0985 Cl      1  UNL1       -0.0822
     14 C          61.5731   90.1020   12.9713 C.ar    1  UNL1        0.0408
     15 C          60.8658   89.5859   11.7532 C.ar    1  UNL1        0.1413
     16 F          59.4310   89.1579   11.8441 F       1  UNL1       -0.2043
     17 C          59.5284   92.1215    4.0763 C.ar    1  UNL1        0.2252
     18 C          60.0611   91.1607    5.0976 C.ar    1  UNL1        0.0651
     19 C          59.1134   90.3874    5.9658 C.ar    1  UNL1        0.0882
     20 C          57.6332   90.5748    5.8128 C.ar    1  UNL1        0.0283
     21 C          57.1004   91.5357    4.7914 C.ar    1  UNL1        0.1023
     22 N          58.0481   92.3090    3.9232 N.ar    1  UNL1       -0.2101
     23 C          60.0465   93.3432    1.8426 C.3     1  UNL1        0.2542
     24 O          60.4761   92.8949    3.2080 O.3     1  UNL1       -0.4561
     25 C          61.2445   86.5443   10.0511 C.2     1  UNL1        0.2527
     26 O          60.6689   86.5267   11.4362 O.2     1  UNL1       -0.2699
     27 N          62.3528   85.6013    9.6873 N.am    1  UNL1       -0.2836
     28 H          62.7305   85.6129    8.7782 H       1  UNL1        0.1549
     29 C          62.8856   84.6405   10.7086 C.2     1  UNL1        0.0322
     30 C          63.7769   83.5115   10.2832 C.2     1  UNL1        0.0122
     31 C          64.3096   82.5507   11.3046 C.2     1  UNL1        0.0216
     32 C          63.9511   82.7190   12.7514 C.2     1  UNL1        0.1008
     33 N          64.3222   81.9350   13.9751 N.2     1  UNL1       -0.1482
     34 N          63.6603   82.5795   15.1569 N.2     1  UNL1       -0.1467
     35 C          62.8801   83.7618   14.6635 C.2     1  UNL1        0.1198
     36 C          63.0598   83.8480   13.1768 C.2     1  UNL1        0.0238
     37 C          62.5271   84.8088   12.1554 C.3     1  UNL1        0.0707
@<TRIPOS>BOND
     1    23    24    1
     2    24    17    1
     3    17    18   ar
     4    18    19   ar
     5    19     1    1
     6     1     2    2
     7     2     3    1
     8     3     9    1
     9     9    10   ar
    10    10    11   ar
    11    11    12   ar
    12    12    13    1
    13    12    14   ar
    14    14    15   ar
    15    15    16    1
    16     3     4    1
    17     4    25    1
    18    25    26    2
    19    25    27   am
    20    27    29    1
    21    29    30    2
    22    30    31    1
    23    31    32    2
    24    32    33    1
    25    33    34    2
    26    34    35    1
    27    35    36    2
    28    36    37    1
    29     4     5    2
    30     5     6    1
    31     5     7    1
    32    19    20   ar
    33    20    21   ar
    34    21    22   ar
    35    22    17   ar
    36     7     1    1
    37    15     9   ar
    38    37    29    1
    39    36    32    1
    40    27    28    1
    41     7     8    1
@<TRIPOS>MOLECULE
*****
 37 41 0 0 0
SMALL
GASTEIGER

@<TRIPOS>ATOM
      1 C          64.4561   89.3496   13.7196 C.2     1  UNL1        0.3203
      2 N          63.5905   88.9953   12.5469 N.2     1  UNL1       -0.0600
      3 C          63.1364   87.5793   12.3506 C.3     1  UNL1        0.2689
      4 C          63.5479   86.5175   13.3270 C.2     1  UNL1        0.1165
      5 C          64.4135   86.8719   14.4998 C.2     1  UNL1        0.1177
      6 C          64.8249   85.8102   15.4761 C.3     1  UNL1        0.0754
      7 N          64.8675   88.2880   14.6959 N.pl3   1  UNL1       -0.2028
      8 H          65.4356   88.5206   15.4656 H       1  UNL1        0.2982
      9 C          62.2709   87.2249   11.1778 C.ar    1  UNL1        0.0582
     10 C          62.7218   86.1788   10.2019 C.ar    1  UNL1        0.0033
     11 C          61.8563   85.8245    9.0291 C.ar    1  UNL1        0.0114
     12 C          60.5398   86.5162    8.8323 C.ar    1  UNL1        0.0599
     13 CL         59.6743   86.1619    7.6596 Cl      1  UNL1       -0.0822
     14 C          60.0890   87.5623    9.8083 C.ar    1  UNL1        0.0408
     15 C          60.9546   87.9166   10.9811 C.ar    1  UNL1        0.1413
     16 F          60.5037   88.9627   11.9571 F       1  UNL1       -0.2043
     17 C          65.6065   93.0633   12.9227 C.ar    1  UNL1        0.2252
     18 C          65.1525   91.6472   12.7266 C.ar    1  UNL1        0.0651
     19 C          64.9101   90.7658   13.9158 C.ar    1  UNL1        0.0882
     20 C          65.1218   91.3004   15.3011 C.ar    1  UNL1        0.0283
     21 C          65.5759   92.7165   15.4974 C.ar    1  UNL1        0.1023
     22 N          65.8182   93.5980   14.3081 N.ar    1  UNL1       -0.2101
     23 C          66.2569   93.3405   10.4227 C.3     1  UNL1        0.2542
     24 O          65.8489   93.9448   11.7334 O.3     1  UNL1       -0.4561
     25 C          63.0938   85.1014   13.1307 C.2     1  UNL1        0.2527
     26 O          61.6667   84.7271   13.4014 O.2     1  UNL1       -0.2699
     27 N          64.0669   84.0598   12.6636 N.am    1  UNL1       -0.2836
     28 H          65.0035   84.3055   12.4859 H       1  UNL1        0.1549
     29 C          63.6128   82.6437   12.4674 C.2     1  UNL1        0.0322
     30 C          63.1949   81.8194   13.6490 C.2     1  UNL1        0.0122
     31 C          62.7408   80.4033   13.4526 C.2     1  UNL1        0.0216
     32 C          62.7046   79.8115   12.0747 C.2     1  UNL1        0.1008
     33 N          62.3063   78.4543   11.5755 N.2     1  UNL1       -0.1482
     34 N          62.4780   78.4397   10.0854 N.2     1  UNL1       -0.1467
     35 C          62.9824   79.7879    9.6638 C.2     1  UNL1        0.1198
     36 C          63.1225   80.6358   10.8932 C.2     1  UNL1        0.0238
     37 C          63.5766   82.0518   11.0895 C.3     1  UNL1        0.0707
@<TRIPOS>BOND
     1    23    24    1
     2    24    17    1
     3    17    18   ar
     4    18    19   ar
     5    19     1    1
     6     1     2    2
     7     2     3    1
     8     3     9    1
     9     9    10   ar
    10    10    11   ar
    11    11    12   ar
    12    12    13    1
    13    12    14   ar
    14    14    15   ar
    15    15    16    1
    16     3     4    1
    17     4    25    1
    18    25    26    2
    19    25    27   am
    20    27    29    1
    21    29    30    2
    22    30    31    1
    23    31    32    2
    24    32    33    1
    25    33    34    2
    26    34    35    1
    27    35    36    2
    28    36    37    1
    29     4     5    2
    30     5     6    1
    31     5     7    1
    32    19    20   ar
    33    20    21   ar
    34    21    22   ar
    35    22    17   ar
    36     7     1    1
    37    15     9   ar
    38    37    29    1
    39    36    32    1
    40    27    28    1
    41     7     8    1
@<TRIPOS>MOLECULE
*****
 37 41 0 0 0
SMALL
GASTEIGER

@<TRIPOS>ATOM
      1 C          65.2367   93.1485   11.6251 C.2     1  UNL1        0.3203
      2 N          64.2195   92.2699   10.9592 N.2     1  UNL1       -0.0600
      3 C          63.7264   91.0347   11.6528 C.3     1  UNL1        0.2689
      4 C          64.2505   90.6780   13.0123 C.2     1  UNL1        0.1165
      5 C          65.2677   91.5567   13.6782 C.2     1  UNL1        0.1177
      6 C          65.7918   91.2001   15.0376 C.3     1  UNL1        0.0754
      7 N          65.7607   92.7919   12.9845 N.pl3   1  UNL1       -0.2028
      8 H          66.4284   93.3685   13.4215 H       1  UNL1        0.2982
      9 C          62.7092   90.1561   10.9869 C.ar    1  UNL1        0.0582
     10 C          63.1470   88.9169   10.2638 C.ar    1  UNL1        0.0033
     11 C          62.1298   88.0383    9.5979 C.ar    1  UNL1        0.0114
     12 C          60.6749   88.3989    9.6550 C.ar    1  UNL1        0.0599
     13 CL         59.6577   87.5203    8.9891 Cl      1  UNL1       -0.0822
     14 C          60.2372   89.6380   10.3781 C.ar    1  UNL1        0.0408
     15 C          61.2544   90.5167   11.0441 C.ar    1  UNL1        0.1413
     16 F          60.8166   91.7559   11.7672 F       1  UNL1       -0.2043
     17 C          66.2821   95.6647    8.7397 C.ar    1  UNL1        0.2252
     18 C          65.7890   94.4295    9.4334 C.ar    1  UNL1        0.0651
     19 C          65.7298   94.3837   10.9315 C.ar    1  UNL1        0.0882
     20 C          66.1636   95.5730   11.7359 C.ar    1  UNL1        0.0283
     21 C          66.6567   96.8083   11.0422 C.ar    1  UNL1        0.1023
     22 N          66.7159   96.8541    9.5441 N.ar    1  UNL1       -0.2101
     23 C          65.5802   96.7639    6.4927 C.3     1  UNL1        0.2542
     24 O          66.3413   95.7105    7.2415 O.3     1  UNL1       -0.4561
     25 C          63.7574   89.4428   13.7059 C.2     1  UNL1        0.2527
     26 O          62.5753   89.5206   14.6260 O.2     1  UNL1       -0.2699
     27 N          64.4464   88.1298   13.4793 N.am    1  UNL1       -0.2836
     28 H          65.2223   88.0788   12.8754 H       1  UNL1        0.1549
     29 C          63.9533   86.8946   14.1729 C.2     1  UNL1        0.0322
     30 C          63.8329   86.8713   15.6679 C.2     1  UNL1        0.0122
     31 C          63.3398   85.6360   16.3615 C.2     1  UNL1        0.0216
     32 C          62.9670   84.4241   15.5600 C.2     1  UNL1        0.1008
     33 N          62.4544   83.0732   15.9628 N.2     1  UNL1       -0.1482
     34 N          62.2580   82.2616   14.7167 N.2     1  UNL1       -0.1467
     35 C          62.6492   83.1109   13.5439 C.2     1  UNL1        0.1198
     36 C          63.0874   84.4474   14.0651 C.2     1  UNL1        0.0238
     37 C          63.5805   85.6826   13.3715 C.3     1  UNL1        0.0707
@<TRIPOS>BOND
     1    23    24    1
     2    24    17    1
     3    17    18   ar
     4    18    19   ar
     5    19     1    1
     6     1     2    2
     7     2     3    1
     8     3     9    1
     9     9    10   ar
    10    10    11   ar
    11    11    12   ar
    12    12    13    1
    13    12    14   ar
    14    14    15   ar
    15    15    16    1
    16     3     4    1
    17     4    25    1
    18    25    26    2
    19    25    27   am
    20    27    29    1
    21    29    30    2
    22    30    31    1
    23    31    32    2
    24    32    33    1
    25    33    34    2
    26    34    35    1
    27    35    36    2
    28    36    37    1
    29     4     5    2
    30     5     6    1
    31     5     7    1
    32    19    20   ar
    33    20    21   ar
    34    21    22   ar
    35    22    17   ar
    36     7     1    1
    37    15     9   ar
    38    37    29    1
    39    36    32    1
    40    27    28    1
    41     7     8    1
@<TRIPOS>MOLECULE
*****
 37 41 0 0 0
SMALL
GASTEIGER

@<TRIPOS>ATOM
      1 C          63.7991   87.7872   14.4371 C.2     1  UNL1        0.3203
      2 N          64.7503   88.8094   14.9851 N.2     1  UNL1       -0.0600
      3 C          65.0340   90.0617   14.2098 C.3     1  UNL1        0.2689
      4 C          64.3664   90.2919   12.8864 C.2     1  UNL1        0.1165
      5 C          63.4152   89.2696   12.3383 C.2     1  UNL1        0.1177
      6 C          62.7477   89.4998   11.0150 C.3     1  UNL1        0.0754
      7 N          63.1316   88.0174   13.1137 N.pl3   1  UNL1       -0.2028
      8 H          62.5073   87.3464   12.7541 H       1  UNL1        0.2982
      9 C          65.9852   91.0838   14.7578 C.ar    1  UNL1        0.0582
     10 C          67.4026   91.1276   14.2687 C.ar    1  UNL1        0.0033
     11 C          68.3538   92.1498   14.8167 C.ar    1  UNL1        0.0114
     12 C          67.8878   93.1281   15.8539 C.ar    1  UNL1        0.0599
     13 CL         68.8390   94.1503   16.4020 Cl      1  UNL1       -0.0822
     14 C          66.4704   93.0843   16.3430 C.ar    1  UNL1        0.0408
     15 C          65.5191   92.0621   15.7949 C.ar    1  UNL1        0.1413
     16 F          64.1018   92.0183   16.2841 F       1  UNL1       -0.2043
     17 C          63.4997   83.9417   15.3711 C.ar    1  UNL1        0.2252
     18 C          63.7833   85.1940   14.5957 C.ar    1  UNL1        0.0651
     19 C          63.5154   86.5348   15.2125 C.ar    1  UNL1        0.0882
     20 C          62.9640   86.6233   16.6046 C.ar    1  UNL1        0.0283
     21 C          62.6803   85.3710   17.3800 C.ar    1  UNL1        0.1023
     22 N          62.9482   84.0302   16.7632 N.ar    1  UNL1       -0.2101
     23 C          63.5613   82.3975   13.2826 C.3     1  UNL1        0.2542
     24 O          63.7676   82.6008   14.7543 O.3     1  UNL1       -0.4561
     25 C          64.6501   91.5442   12.1110 C.2     1  UNL1        0.2527
     26 O          63.5257   92.2951   11.4615 O.2     1  UNL1       -0.2699
     27 N          66.0583   92.0456   11.9852 N.am    1  UNL1       -0.2836
     28 H          66.7962   91.5527   12.4115 H       1  UNL1        0.1549
     29 C          66.3420   93.2979   11.2098 C.2     1  UNL1        0.0322
     30 C          66.1567   94.6387   11.8566 C.2     1  UNL1        0.0122
     31 C          66.4404   95.8910   11.0811 C.2     1  UNL1        0.0216
     32 C          66.9094   95.8026    9.6590 C.2     1  UNL1        0.1008
     33 N          67.2653   96.8560    8.6523 N.2     1  UNL1       -0.1482
     34 N          67.6706   96.1663    7.3834 N.2     1  UNL1       -0.1467
     35 C          67.5651   94.6867    7.6059 C.2     1  UNL1        0.1198
     36 C          67.0946   94.4619    9.0124 C.2     1  UNL1        0.0238
     37 C          66.8109   93.2096    9.7877 C.3     1  UNL1        0.0707
@<TRIPOS>BOND
     1    23    24    1
     2    24    17    1
     3    17    18   ar
     4    18    19   ar
     5    19     1    1
     6     1     2    2
     7     2     3    1
     8     3     9    1
     9     9    10   ar
    10    10    11   ar
    11    11    12   ar
    12    12    13    1
    13    12    14   ar
    14    14    15   ar
    15    15    16    1
    16     3     4    1
    17     4    25    1
    18    25    26    2
    19    25    27   am
    20    27    29    1
    21    29    30    2
    22    30    31    1
    23    31    32    2
    24    32    33    1
    25    33    34    2
    26    34    35    1
    27    35    36    2
    28    36    37    1
    29     4     5    2
    30     5     6    1
    31     5     7    1
    32    19    20   ar
    33    20    21   ar
    34    21    22   ar
    35    22    17   ar
    36     7     1    1
    37    15     9   ar
    38    37    29    1
    39    36    32    1
    40    27    28    1
    41     7     8    1
