@<TRIPOS>MOLECULE
*****
 30 31 0 0 0
SMALL
GASTEIGER

@<TRIPOS>ATOM
      1 C          63.6831   90.5544   12.8850 C.ar    1  UNL1       -0.0022
      2 C          64.0953   91.6603   11.9593 C.ar    1  UNL1        0.0012
      3 C          65.3796   92.3980   12.1971 C.ar    1  UNL1        0.0712
      4 C          66.2517   92.0297   13.3606 C.ar    1  UNL1        0.0038
      5 C          65.8395   90.9238   14.2863 C.ar    1  UNL1       -0.0002
      6 C          64.5552   90.1861   14.0485 C.ar    1  UNL1        0.0005
      7 C          64.1430   89.0802   14.9743 C.ar    1  UNL1        0.0334
      8 C          64.4774   87.6570   14.6383 C.ar    1  UNL1       -0.0009
      9 C          64.0652   86.5511   15.5640 C.ar    1  UNL1       -0.0164
     10 C          63.3187   86.8683   16.8258 C.ar    1  UNL1       -0.0008
     11 C          62.9843   88.2914   17.1619 C.ar    1  UNL1        0.0366
     12 C          63.3965   89.3973   16.2361 C.ar    1  UNL1        0.1386
     13 O          63.0621   90.8205   16.5721 O.3     1  UNL1       -0.4714
     14 C          64.1577   91.7906   16.9017 C.3     1  UNL1        0.2525
     15 C          64.3996   85.1280   15.2280 C.3     1  UNL1        0.0679
     16 C          63.3008   84.1280   15.0217 C.2     1  UNL1        0.0547
     17 O          63.5505   82.6733   15.2897 O.co2   1  UNL1       -0.5488
     18 O          61.9523   84.5825   14.5475 O.co2   1  UNL1       -0.5488
     19 C          65.7918   93.5039   11.2713 C.3     1  UNL1        0.4186
     20 F          66.2039   94.6098   10.3455 F       1  UNL1       -0.1659
     21 F          65.4252   92.6530   10.0917 F       1  UNL1       -0.1659
     22 F          66.1584   94.3548   12.4509 F       1  UNL1       -0.1659
     23 C          62.3989   89.8168   12.6472 C.3     1  UNL1        0.1234
     24 N          62.1116   89.2265   11.2985 N.am    1  UNL1       -0.2419
     25 C          62.3492   87.7659   11.0529 C.2     1  UNL1        0.4052
     26 O          62.8741   86.8956   12.1561 O.2     1  UNL1       -0.2262
     27 C          60.1192   90.1110    9.8849 C.3     1  UNL1        0.0234
     28 C          61.5868   90.0969   10.1953 C.3     1  UNL1        0.0971
     29 O          62.0620   87.1757    9.7042 O.3     1  UNL1       -0.4304
     30 C          60.8236   86.3561    9.4925 C.3     1  UNL1        0.2573
@<TRIPOS>UNITY_ATOM_ATTR
17 1
charge -1
@<TRIPOS>BOND
     1    27    28    1
     2    28    24    1
     3    24    23    1
     4    23     1    1
     5     1     2   ar
     6     2     3   ar
     7     3    19    1
     8    19    20    1
     9    19    21    1
    10    19    22    1
    11     3     4   ar
    12     4     5   ar
    13     5     6   ar
    14     6     7    1
    15     7     8   ar
    16     8     9   ar
    17     9    15    1
    18    15    16    1
    19    16    17   ar
    20    16    18   ar
    21     9    10   ar
    22    10    11   ar
    23    11    12   ar
    24    12    13    1
    25    13    14    1
    26    24    25   am
    27    25    26    2
    28    25    29    1
    29    29    30    1
    30     6     1   ar
    31    12     7   ar
@<TRIPOS>MOLECULE
*****
 30 31 0 0 0
SMALL
GASTEIGER

@<TRIPOS>ATOM
      1 C          63.1810   87.5701   12.6858 C.ar    1  UNL1       -0.0022
      2 C          62.9477   86.2132   12.0906 C.ar    1  UNL1        0.0012
      3 C          63.4528   84.9886   12.7944 C.ar    1  UNL1        0.0712
      4 C          64.1910   85.1210   14.0934 C.ar    1  UNL1        0.0038
      5 C          64.4243   86.4779   14.6886 C.ar    1  UNL1       -0.0002
      6 C          63.9193   87.7025   13.9848 C.ar    1  UNL1        0.0005
      7 C          64.1526   89.0595   14.5800 C.ar    1  UNL1        0.0334
      8 C          65.1333   89.9991   13.9435 C.ar    1  UNL1       -0.0009
      9 C          65.3667   91.3560   14.5387 C.ar    1  UNL1       -0.0164
     10 C          64.6192   91.7734   15.7705 C.ar    1  UNL1       -0.0008
     11 C          63.6384   90.8337   16.4070 C.ar    1  UNL1        0.0366
     12 C          63.4051   89.4767   15.8117 C.ar    1  UNL1        0.1386
     13 O          62.4244   88.5371   16.4483 O.3     1  UNL1       -0.4714
     14 C          62.8641   87.6375   17.5652 C.3     1  UNL1        0.2525
     15 C          66.3474   92.2957   13.9022 C.3     1  UNL1        0.0679
     16 C          67.8200   92.0894   14.0993 C.2     1  UNL1        0.0547
     17 O          68.4037   92.1228   15.4807 O.co2   1  UNL1       -0.5488
     18 O          68.7089   91.8499   12.9151 O.co2   1  UNL1       -0.5488
     19 C          63.2195   83.6316   12.1991 C.3     1  UNL1        0.4186
     20 F          62.9862   82.2747   11.6040 F       1  UNL1       -0.1659
     21 F          64.2511   83.0504   13.1199 F       1  UNL1       -0.1659
     22 F          62.1878   84.2129   11.2784 F       1  UNL1       -0.1659
     23 C          62.6760   88.7947   11.9820 C.3     1  UNL1        0.1234
     24 N          61.3422   88.7692   11.2962 N.am    1  UNL1       -0.2419
     25 C          61.2129   88.1638    9.9298 C.2     1  UNL1        0.4052
     26 O          62.4173   87.5840    9.2494 O.2     1  UNL1       -0.2262
     27 C          59.5376   90.6296   11.4764 C.3     1  UNL1        0.0234
     28 C          60.1377   89.3491   11.9767 C.3     1  UNL1        0.0971
     29 O          59.8791   88.1383    9.2440 O.3     1  UNL1       -0.4304
     30 C          59.7117   88.7931    7.9048 C.3     1  UNL1        0.2573
@<TRIPOS>UNITY_ATOM_ATTR
17 1
charge -1
@<TRIPOS>BOND
     1    27    28    1
     2    28    24    1
     3    24    23    1
     4    23     1    1
     5     1     2   ar
     6     2     3   ar
     7     3    19    1
     8    19    20    1
     9    19    21    1
    10    19    22    1
    11     3     4   ar
    12     4     5   ar
    13     5     6   ar
    14     6     7    1
    15     7     8   ar
    16     8     9   ar
    17     9    15    1
    18    15    16    1
    19    16    17   ar
    20    16    18   ar
    21     9    10   ar
    22    10    11   ar
    23    11    12   ar
    24    12    13    1
    25    13    14    1
    26    24    25   am
    27    25    26    2
    28    25    29    1
    29    29    30    1
    30     6     1   ar
    31    12     7   ar
@<TRIPOS>MOLECULE
*****
 30 31 0 0 0
SMALL
GASTEIGER

@<TRIPOS>ATOM
      1 C          63.0277   87.2366   12.5206 C.ar    1  UNL1       -0.0022
      2 C          63.2245   88.7017   12.2665 C.ar    1  UNL1        0.0012
      3 C          64.0263   89.5286   13.2276 C.ar    1  UNL1        0.0712
      4 C          64.6311   88.8903   14.4427 C.ar    1  UNL1        0.0038
      5 C          64.4343   87.4251   14.6968 C.ar    1  UNL1       -0.0002
      6 C          63.6325   86.5983   13.7358 C.ar    1  UNL1        0.0005
      7 C          63.4357   85.1331   13.9900 C.ar    1  UNL1        0.0334
      8 C          64.0048   84.1236   13.0376 C.ar    1  UNL1       -0.0009
      9 C          63.8080   82.6585   13.2917 C.ar    1  UNL1       -0.0164
     10 C          63.0420   82.2028   14.4983 C.ar    1  UNL1       -0.0008
     11 C          62.4729   83.2123   15.4506 C.ar    1  UNL1        0.0366
     12 C          62.6697   84.6775   15.1965 C.ar    1  UNL1        0.1386
     13 O          62.1006   85.6870   16.1488 O.3     1  UNL1       -0.4714
     14 C          62.8216   86.0034   17.4256 C.3     1  UNL1        0.2525
     15 C          64.3772   81.6490   12.3394 C.3     1  UNL1        0.0679
     16 C          64.0734   81.7461   10.8737 C.2     1  UNL1        0.0547
     17 O          64.8013   82.7430   10.0213 O.co2   1  UNL1       -0.5488
     18 O          63.0419   80.8463   10.2603 O.co2   1  UNL1       -0.5488
     19 C          64.2231   90.9938   12.9734 C.3     1  UNL1        0.4186
     20 F          64.4200   92.4589   12.7192 F       1  UNL1       -0.1659
     21 F          65.3103   91.0268   14.0062 F       1  UNL1       -0.1659
     22 F          63.1359   90.9607   11.9405 F       1  UNL1       -0.1659
     23 C          62.2259   86.4098   11.5596 C.3     1  UNL1        0.1234
     24 N          61.7231   87.0189   10.2845 N.am    1  UNL1       -0.2419
     25 C          60.5118   87.9036   10.3024 C.2     1  UNL1        0.4052
     26 O          59.8034   88.1791   11.5956 O.2     1  UNL1       -0.2262
     27 C          62.9552   85.3680    8.7013 C.3     1  UNL1        0.0234
     28 C          62.4314   86.7434    8.9913 C.3     1  UNL1        0.0971
     29 O          60.0090   88.5127    9.0273 O.3     1  UNL1       -0.4304
     30 C          59.1736   87.6975    8.0850 C.3     1  UNL1        0.2573
@<TRIPOS>UNITY_ATOM_ATTR
17 1
charge -1
@<TRIPOS>BOND
     1    27    28    1
     2    28    24    1
     3    24    23    1
     4    23     1    1
     5     1     2   ar
     6     2     3   ar
     7     3    19    1
     8    19    20    1
     9    19    21    1
    10    19    22    1
    11     3     4   ar
    12     4     5   ar
    13     5     6   ar
    14     6     7    1
    15     7     8   ar
    16     8     9   ar
    17     9    15    1
    18    15    16    1
    19    16    17   ar
    20    16    18   ar
    21     9    10   ar
    22    10    11   ar
    23    11    12   ar
    24    12    13    1
    25    13    14    1
    26    24    25   am
    27    25    26    2
    28    25    29    1
    29    29    30    1
    30     6     1   ar
    31    12     7   ar
@<TRIPOS>MOLECULE
*****
 30 31 0 0 0
SMALL
GASTEIGER

@<TRIPOS>ATOM
      1 C          63.4477   86.1909   13.1101 C.ar    1  UNL1       -0.0022
      2 C          63.4490   84.7713   12.6255 C.ar    1  UNL1        0.0012
      3 C          63.9443   83.6739   13.5201 C.ar    1  UNL1        0.0712
      4 C          64.4383   83.9959   14.8992 C.ar    1  UNL1        0.0038
      5 C          64.4371   85.4154   15.3838 C.ar    1  UNL1       -0.0002
      6 C          63.9418   86.5129   14.4892 C.ar    1  UNL1        0.0005
      7 C          63.9406   87.9325   14.9739 C.ar    1  UNL1        0.0334
      8 C          64.7316   88.9756   14.2417 C.ar    1  UNL1       -0.0009
      9 C          64.7304   90.3952   14.7263 C.ar    1  UNL1       -0.0164
     10 C          63.9381   90.7716   15.9432 C.ar    1  UNL1       -0.0008
     11 C          63.1471   89.7285   16.6753 C.ar    1  UNL1        0.0366
     12 C          63.1483   88.3089   16.1907 C.ar    1  UNL1        0.1386
     13 O          62.3572   87.2658   16.9228 O.3     1  UNL1       -0.4714
     14 C          62.7531   86.8624   18.3123 C.3     1  UNL1        0.2525
     15 C          65.5215   91.4383   13.9942 C.3     1  UNL1        0.0679
     16 C          66.8158   91.9364   14.5657 C.2     1  UNL1        0.0547
     17 O          66.8385   92.5836   15.9188 O.co2   1  UNL1       -0.5488
     18 O          68.0875   91.7874   13.7843 O.co2   1  UNL1       -0.5488
     19 C          63.9455   82.2543   13.0354 C.3     1  UNL1        0.4186
     20 F          63.9467   80.8347   12.5508 F       1  UNL1       -0.1659
     21 F          63.1818   81.8366   14.2570 F       1  UNL1       -0.1659
     22 F          64.7092   82.6719   11.8138 F       1  UNL1       -0.1659
     23 C          62.9525   87.2883   12.2155 C.3     1  UNL1        0.1234
     24 N          61.9352   86.9895   11.1545 N.am    1  UNL1       -0.2419
     25 C          60.7534   87.8951   10.9721 C.2     1  UNL1        0.4052
     26 O          60.5889   89.0996   11.8508 O.2     1  UNL1       -0.2262
     27 C          62.6782   85.9338    8.8997 C.3     1  UNL1        0.0234
     28 C          62.0997   85.7850   10.2757 C.3     1  UNL1        0.0971
     29 O          59.7362   87.5962    9.9111 O.3     1  UNL1       -0.4304
     30 C          59.8466   88.2438    8.5625 C.3     1  UNL1        0.2573
@<TRIPOS>UNITY_ATOM_ATTR
17 1
charge -1
@<TRIPOS>BOND
     1    27    28    1
     2    28    24    1
     3    24    23    1
     4    23     1    1
     5     1     2   ar
     6     2     3   ar
     7     3    19    1
     8    19    20    1
     9    19    21    1
    10    19    22    1
    11     3     4   ar
    12     4     5   ar
    13     5     6   ar
    14     6     7    1
    15     7     8   ar
    16     8     9   ar
    17     9    15    1
    18    15    16    1
    19    16    17   ar
    20    16    18   ar
    21     9    10   ar
    22    10    11   ar
    23    11    12   ar
    24    12    13    1
    25    13    14    1
    26    24    25   am
    27    25    26    2
    28    25    29    1
    29    29    30    1
    30     6     1   ar
    31    12     7   ar
@<TRIPOS>MOLECULE
*****
 30 31 0 0 0
SMALL
GASTEIGER

@<TRIPOS>ATOM
      1 C          61.8406   85.9127   10.4206 C.ar    1  UNL1       -0.0022
      2 C          61.5840   85.8468    8.9443 C.ar    1  UNL1        0.0012
      3 C          62.3257   84.8553    8.0976 C.ar    1  UNL1        0.0712
      4 C          63.3240   83.9298    8.7274 C.ar    1  UNL1        0.0038
      5 C          63.5806   83.9957   10.2038 C.ar    1  UNL1       -0.0002
      6 C          62.8389   84.9871   11.0504 C.ar    1  UNL1        0.0005
      7 C          63.0955   85.0530   12.5269 C.ar    1  UNL1        0.0334
      8 C          63.6098   86.3203   13.1429 C.ar    1  UNL1       -0.0009
      9 C          63.8664   86.3862   14.6193 C.ar    1  UNL1       -0.0164
     10 C          63.6087   85.1848   15.4797 C.ar    1  UNL1       -0.0008
     11 C          63.0945   83.9175   14.8637 C.ar    1  UNL1        0.0366
     12 C          62.8378   83.8516   13.3872 C.ar    1  UNL1        0.1386
     13 O          62.3236   82.5843   12.7712 O.3     1  UNL1       -0.4714
     14 C          62.8977   81.2620   13.1860 C.3     1  UNL1        0.2525
     15 C          64.3807   87.6535   15.2353 C.3     1  UNL1        0.0679
     16 C          63.4441   88.5611   15.9763 C.2     1  UNL1        0.0547
     17 O          62.8040   89.7183   15.2681 O.co2   1  UNL1       -0.5488
     18 O          63.1476   88.3117   17.4253 O.co2   1  UNL1       -0.5488
     19 C          62.0691   84.7895    6.6211 C.3     1  UNL1        0.4186
     20 F          61.8125   84.7236    5.1448 F       1  UNL1       -0.1659
     21 F          63.5171   84.4785    6.3834 F       1  UNL1       -0.1659
     22 F          60.6211   85.1004    6.8589 F       1  UNL1       -0.1659
     23 C          61.0988   86.9042   11.2673 C.3     1  UNL1        0.1234
     24 N          61.0113   88.3391   10.8391 N.am    1  UNL1       -0.2419
     25 C          62.0802   89.3097   11.2459 C.2     1  UNL1        0.4052
     26 O          63.2365   88.8454   12.0809 O.2     1  UNL1       -0.2262
     27 C          60.0339   89.0225    8.5309 C.3     1  UNL1        0.0234
     28 C          59.8550   88.8034   10.0040 C.3     1  UNL1        0.0971
     29 O          61.9927   90.7446   10.8177 O.3     1  UNL1       -0.4304
     30 C          63.1642   91.4005   10.1487 C.3     1  UNL1        0.2573
@<TRIPOS>UNITY_ATOM_ATTR
17 1
charge -1
@<TRIPOS>BOND
     1    27    28    1
     2    28    24    1
     3    24    23    1
     4    23     1    1
     5     1     2   ar
     6     2     3   ar
     7     3    19    1
     8    19    20    1
     9    19    21    1
    10    19    22    1
    11     3     4   ar
    12     4     5   ar
    13     5     6   ar
    14     6     7    1
    15     7     8   ar
    16     8     9   ar
    17     9    15    1
    18    15    16    1
    19    16    17   ar
    20    16    18   ar
    21     9    10   ar
    22    10    11   ar
    23    11    12   ar
    24    12    13    1
    25    13    14    1
    26    24    25   am
    27    25    26    2
    28    25    29    1
    29    29    30    1
    30     6     1   ar
    31    12     7   ar
@<TRIPOS>MOLECULE
*****
 30 31 0 0 0
SMALL
GASTEIGER

@<TRIPOS>ATOM
      1 C          62.4319   87.7278   11.3791 C.ar    1  UNL1       -0.0022
      2 C          61.6910   88.5143   10.3387 C.ar    1  UNL1        0.0012
      3 C          60.8479   87.8045    9.3212 C.ar    1  UNL1        0.0712
      4 C          60.7456   86.3082    9.3441 C.ar    1  UNL1        0.0038
      5 C          61.4865   85.5217   10.3845 C.ar    1  UNL1       -0.0002
      6 C          62.3296   86.2315   11.4020 C.ar    1  UNL1        0.0005
      7 C          63.0706   85.4449   12.4424 C.ar    1  UNL1        0.0334
      8 C          63.1180   85.9339   13.8597 C.ar    1  UNL1       -0.0009
      9 C          63.8588   85.1474   14.9001 C.ar    1  UNL1       -0.0164
     10 C          64.5523   83.8718   14.5233 C.ar    1  UNL1       -0.0008
     11 C          64.5049   83.3828   13.1060 C.ar    1  UNL1        0.0366
     12 C          63.7640   84.1693   12.0656 C.ar    1  UNL1        0.1386
     13 O          63.7166   83.6803   10.6484 O.3     1  UNL1       -0.4714
     14 C          63.8113   82.2116   10.3582 C.3     1  UNL1        0.2525
     15 C          63.9063   85.6365   16.3173 C.3     1  UNL1        0.0679
     16 C          62.8708   86.6022   16.8125 C.2     1  UNL1        0.0547
     17 O          61.5431   86.0967   17.2939 O.co2   1  UNL1       -0.5488
     18 O          63.1631   88.0734   16.8264 O.co2   1  UNL1       -0.5488
     19 C          60.1070   88.5911    8.2808 C.3     1  UNL1        0.4186
     20 F          59.3661   89.3776    7.2404 F       1  UNL1       -0.1659
     21 F          59.9979   87.3614    7.4289 F       1  UNL1       -0.1659
     22 F          60.2160   89.8208    9.1328 F       1  UNL1       -0.1659
     23 C          63.2751   88.4376   12.3966 C.3     1  UNL1        0.1234
     24 N          63.4179   89.9298   12.3430 N.am    1  UNL1       -0.2419
     25 C          64.2738   90.6380   13.3509 C.2     1  UNL1        0.4052
     26 O          64.9868   89.8540   14.4125 O.2     1  UNL1       -0.2262
     27 C          63.4906   91.4374   10.2282 C.3     1  UNL1        0.0234
     28 C          62.7048   90.7138   11.2814 C.3     1  UNL1        0.0971
     29 O          64.4166   92.1302   13.2973 O.3     1  UNL1       -0.4304
     30 C          65.7316   92.7447   12.9187 C.3     1  UNL1        0.2573
@<TRIPOS>UNITY_ATOM_ATTR
17 1
charge -1
@<TRIPOS>BOND
     1    27    28    1
     2    28    24    1
     3    24    23    1
     4    23     1    1
     5     1     2   ar
     6     2     3   ar
     7     3    19    1
     8    19    20    1
     9    19    21    1
    10    19    22    1
    11     3     4   ar
    12     4     5   ar
    13     5     6   ar
    14     6     7    1
    15     7     8   ar
    16     8     9   ar
    17     9    15    1
    18    15    16    1
    19    16    17   ar
    20    16    18   ar
    21     9    10   ar
    22    10    11   ar
    23    11    12   ar
    24    12    13    1
    25    13    14    1
    26    24    25   am
    27    25    26    2
    28    25    29    1
    29    29    30    1
    30     6     1   ar
    31    12     7   ar
@<TRIPOS>MOLECULE
*****
 30 31 0 0 0
SMALL
GASTEIGER

@<TRIPOS>ATOM
      1 C          63.3221   90.4147   12.3354 C.ar    1  UNL1       -0.0022
      2 C          64.2332   91.4638   12.9002 C.ar    1  UNL1        0.0012
      3 C          64.8922   92.4551   11.9875 C.ar    1  UNL1        0.0712
      4 C          64.6401   92.3972   10.5100 C.ar    1  UNL1        0.0038
      5 C          63.7290   91.3481    9.9452 C.ar    1  UNL1       -0.0002
      6 C          63.0700   90.3568   10.8579 C.ar    1  UNL1        0.0005
      7 C          62.1588   89.3076   10.2930 C.ar    1  UNL1        0.0334
      8 C          62.7195   87.9919    9.8407 C.ar    1  UNL1       -0.0009
      9 C          61.8085   86.9427    9.2759 C.ar    1  UNL1       -0.0164
     10 C          60.3366   87.2092    9.1633 C.ar    1  UNL1       -0.0008
     11 C          59.7758   88.5248    9.6156 C.ar    1  UNL1        0.0366
     12 C          60.6870   89.5741   10.1805 C.ar    1  UNL1        0.1386
     13 O          60.1263   90.8897   10.6328 O.3     1  UNL1       -0.4714
     14 C          59.0320   90.9259   11.6581 C.3     1  UNL1        0.2525
     15 C          62.3692   85.6270    8.8236 C.3     1  UNL1        0.0679
     16 C          62.8267   84.6190    9.8357 C.2     1  UNL1        0.0547
     17 O          63.9647   83.6962    9.5139 O.co2   1  UNL1       -0.5488
     18 O          62.1462   84.5336   11.1698 O.co2   1  UNL1       -0.5488
     19 C          65.8034   93.5043   12.5524 C.3     1  UNL1        0.4186
     20 F          66.7145   94.5535   13.1172 F       1  UNL1       -0.1659
     21 F          65.6760   94.2970   11.2854 F       1  UNL1       -0.1659
     22 F          65.9308   92.7116   13.8194 F       1  UNL1       -0.1659
     23 C          62.6631   89.4234   13.2481 C.3     1  UNL1        0.1234
     24 N          63.4719   88.7116   14.2917 N.am    1  UNL1       -0.2419
     25 C          63.8878   87.2866   14.0754 C.2     1  UNL1        0.4052
     26 O          63.4948   86.5736   12.8156 O.2     1  UNL1       -0.2262
     27 C          63.0834   89.2044   16.8128 C.3     1  UNL1        0.0234
     28 C          63.8649   89.4246   15.5515 C.3     1  UNL1        0.0971
     29 O          64.6967   86.5748   15.1190 O.3     1  UNL1       -0.4304
     30 C          64.0606   85.5120   15.9651 C.3     1  UNL1        0.2573
@<TRIPOS>UNITY_ATOM_ATTR
17 1
charge -1
@<TRIPOS>BOND
     1    27    28    1
     2    28    24    1
     3    24    23    1
     4    23     1    1
     5     1     2   ar
     6     2     3   ar
     7     3    19    1
     8    19    20    1
     9    19    21    1
    10    19    22    1
    11     3     4   ar
    12     4     5   ar
    13     5     6   ar
    14     6     7    1
    15     7     8   ar
    16     8     9   ar
    17     9    15    1
    18    15    16    1
    19    16    17   ar
    20    16    18   ar
    21     9    10   ar
    22    10    11   ar
    23    11    12   ar
    24    12    13    1
    25    13    14    1
    26    24    25   am
    27    25    26    2
    28    25    29    1
    29    29    30    1
    30     6     1   ar
    31    12     7   ar
@<TRIPOS>MOLECULE
*****
 30 31 0 0 0
SMALL
GASTEIGER

@<TRIPOS>ATOM
      1 C          62.4867   85.3594   12.0050 C.ar    1  UNL1       -0.0022
      2 C          62.3558   83.9721   11.4497 C.ar    1  UNL1        0.0012
      3 C          63.2379   82.8726   11.9626 C.ar    1  UNL1        0.0712
      4 C          64.2508   83.1604   13.0309 C.ar    1  UNL1        0.0038
      5 C          64.3816   84.5476   13.5861 C.ar    1  UNL1       -0.0002
      6 C          63.4996   85.6471   13.0732 C.ar    1  UNL1        0.0005
      7 C          63.6305   87.0344   13.6285 C.ar    1  UNL1        0.0334
      8 C          63.6310   88.2155   12.7038 C.ar    1  UNL1       -0.0009
      9 C          63.7620   89.6027   13.2591 C.ar    1  UNL1       -0.0164
     10 C          63.8924   89.8090   14.7391 C.ar    1  UNL1       -0.0008
     11 C          63.8919   88.6279   15.6639 C.ar    1  UNL1        0.0366
     12 C          63.7609   87.2406   15.1085 C.ar    1  UNL1        0.1386
     13 O          63.7604   86.0596   16.0333 O.3     1  UNL1       -0.4714
     14 C          62.9149   86.0774   17.2722 C.3     1  UNL1        0.2525
     15 C          63.7625   90.7838   12.3344 C.3     1  UNL1        0.0679
     16 C          62.7367   90.8834   11.2445 C.2     1  UNL1        0.0547
     17 O          63.1067   91.4792    9.9185 O.co2   1  UNL1       -0.5488
     18 O          61.3409   90.3874   11.4806 O.co2   1  UNL1       -0.5488
     19 C          63.1069   81.4853   11.4073 C.3     1  UNL1        0.4186
     20 F          62.9760   80.0981   10.8520 F       1  UNL1       -0.1659
     21 F          62.2848   81.0868   12.5969 F       1  UNL1       -0.1659
     22 F          63.9291   81.8839   10.2177 F       1  UNL1       -0.1659
     23 C          61.6047   86.4589   11.4920 C.3     1  UNL1        0.1234
     24 N          61.5910   86.7884   10.0287 N.am    1  UNL1       -0.2419
     25 C          60.4459   87.5618    9.4448 C.2     1  UNL1        0.4052
     26 O          59.3147   88.0055   10.3242 O.2     1  UNL1       -0.2262
     27 C          62.4872   85.3081    8.0908 C.3     1  UNL1        0.0234
     28 C          62.7222   86.3446    9.1494 C.3     1  UNL1        0.0971
     29 O          60.4322   87.8913    7.9815 O.3     1  UNL1       -0.4304
     30 C          59.3102   88.7038    7.4062 C.3     1  UNL1        0.2573
@<TRIPOS>UNITY_ATOM_ATTR
17 1
charge -1
@<TRIPOS>BOND
     1    27    28    1
     2    28    24    1
     3    24    23    1
     4    23     1    1
     5     1     2   ar
     6     2     3   ar
     7     3    19    1
     8    19    20    1
     9    19    21    1
    10    19    22    1
    11     3     4   ar
    12     4     5   ar
    13     5     6   ar
    14     6     7    1
    15     7     8   ar
    16     8     9   ar
    17     9    15    1
    18    15    16    1
    19    16    17   ar
    20    16    18   ar
    21     9    10   ar
    22    10    11   ar
    23    11    12   ar
    24    12    13    1
    25    13    14    1
    26    24    25   am
    27    25    26    2
    28    25    29    1
    29    29    30    1
    30     6     1   ar
    31    12     7   ar
@<TRIPOS>MOLECULE
*****
 30 31 0 0 0
SMALL
GASTEIGER

@<TRIPOS>ATOM
      1 C          62.6997   88.3343   11.8703 C.ar    1  UNL1       -0.0022
      2 C          61.7301   87.6086   10.9853 C.ar    1  UNL1        0.0012
      3 C          60.7837   88.3826   10.1163 C.ar    1  UNL1        0.0712
      4 C          60.8068   89.8823   10.1322 C.ar    1  UNL1        0.0038
      5 C          61.7764   90.6080   11.0171 C.ar    1  UNL1       -0.0002
      6 C          62.7228   89.8340   11.8862 C.ar    1  UNL1        0.0005
      7 C          63.6924   90.5599   12.7712 C.ar    1  UNL1        0.0334
      8 C          64.7898   91.3833   12.1648 C.ar    1  UNL1       -0.0009
      9 C          65.7594   92.1091   13.0497 C.ar    1  UNL1       -0.0164
     10 C          65.6316   92.0115   14.5411 C.ar    1  UNL1       -0.0008
     11 C          64.5343   91.1880   15.1475 C.ar    1  UNL1        0.0366
     12 C          63.5647   90.4622   14.2625 C.ar    1  UNL1        0.1386
     13 O          62.4673   89.6387   14.8689 O.3     1  UNL1       -0.4714
     14 C          62.6380   89.0548   16.2401 C.3     1  UNL1        0.2525
     15 C          66.8567   92.9326   12.4432 C.3     1  UNL1        0.0679
     16 C          67.0141   92.9914   10.9527 C.2     1  UNL1        0.0547
     17 O          66.1935   93.9566   10.1494 O.co2   1  UNL1       -0.5488
     18 O          67.9919   92.0851   10.2654 O.co2   1  UNL1       -0.5488
     19 C          59.8141   87.6568    9.2313 C.3     1  UNL1        0.4186
     20 F          58.8445   86.9309    8.3464 F       1  UNL1       -0.1659
     21 F          60.2324   86.3525    9.8427 F       1  UNL1       -0.1659
     22 F          59.3957   88.9610    8.6199 F       1  UNL1       -0.1659
     23 C          63.6461   87.5604   12.7393 C.3     1  UNL1        0.1234
     24 N          63.3937   86.1077   13.0150 N.am    1  UNL1       -0.2419
     25 C          64.0128   85.4533   14.2144 C.2     1  UNL1        0.4052
     26 O          64.8844   86.2516   15.1381 O.2     1  UNL1       -0.2262
     27 C          63.1276   84.2534   11.2148 C.3     1  UNL1        0.0234
     28 C          62.5221   85.3094   12.0914 C.3     1  UNL1        0.0971
     29 O          63.7604   84.0007   14.4901 O.3     1  UNL1       -0.4304
     30 C          62.6529   83.5945   15.4168 C.3     1  UNL1        0.2573
@<TRIPOS>UNITY_ATOM_ATTR
17 1
charge -1
@<TRIPOS>BOND
     1    27    28    1
     2    28    24    1
     3    24    23    1
     4    23     1    1
     5     1     2   ar
     6     2     3   ar
     7     3    19    1
     8    19    20    1
     9    19    21    1
    10    19    22    1
    11     3     4   ar
    12     4     5   ar
    13     5     6   ar
    14     6     7    1
    15     7     8   ar
    16     8     9   ar
    17     9    15    1
    18    15    16    1
    19    16    17   ar
    20    16    18   ar
    21     9    10   ar
    22    10    11   ar
    23    11    12   ar
    24    12    13    1
    25    13    14    1
    26    24    25   am
    27    25    26    2
    28    25    29    1
    29    29    30    1
    30     6     1   ar
    31    12     7   ar
