@<TRIPOS>MOLECULE
*****
 37 40 0 0 0
SMALL
GASTEIGER

@<TRIPOS>ATOM
      1 N          65.6056   92.1256   12.9822 N.ar    1  UNL1       -0.2508
      2 N          65.4875   91.2888   14.2215 N.ar    1  UNL1       -0.1678
      3 C          64.3926   90.2873   14.0020 C.ar    1  UNL1        0.1194
      4 C          63.8340   90.5051   12.6270 C.ar    1  UNL1        0.0411
      5 C          62.7396   89.8157   11.8675 C.ar    1  UNL1        0.0402
      6 C          62.3949   90.2624   10.4777 C.ar    1  UNL1        0.1444
      7 C          63.1445   91.3985    9.8474 C.ar    1  UNL1        0.0386
      8 C          64.2389   92.0879   10.6069 C.ar    1  UNL1        0.0219
      9 C          64.5837   91.6412   11.9967 C.ar    1  UNL1        0.0796
     10 C          63.9364   89.2501   14.9848 C.ar    1  UNL1        0.0957
     11 C          63.4571   89.6645   16.3444 C.ar    1  UNL1        0.1191
     12 N          63.0009   88.6273   17.3273 N.ar    1  UNL1       -0.2223
     13 C          63.0239   87.1756   16.9505 C.ar    1  UNL1        0.1784
     14 N          62.6380   85.9370   17.7035 N.ar    1  UNL1       -0.2236
     15 C          62.8787   84.7570   16.8093 C.ar    1  UNL1        0.1066
     16 C          63.4134   85.2663   15.5036 C.ar    1  UNL1        0.0910
     17 C          63.5032   86.7611   15.5910 C.ar    1  UNL1        0.0988
     18 N          63.9594   87.7983   14.6081 N.ar    1  UNL1       -0.3481
     19 H          64.2739   87.5262   13.7157 H       1  UNL1        0.1661
     20 C          63.7919   84.4280   14.3187 C.2     1  UNL1        0.2488
     21 O          65.2373   84.2384   13.9651 O.2     1  UNL1       -0.2700
     22 N          62.7251   83.7794   13.4873 N.am    1  UNL1       -0.3039
     23 H          61.7765   83.9038   13.7194 H       1  UNL1        0.1496
     24 C          63.1036   82.9411   12.3025 C.3     1  UNL1        0.0572
     25 C          63.1863   81.7310   13.1850 C.3     1  UNL1        0.0196
     26 C          63.0210   84.1512   11.4199 C.3     1  UNL1        0.0196
     27 C          63.4822   82.1028   11.1176 C.3     1  UNL1        0.0196
     28 C          66.5753   93.2494   12.7662 C.3     1  UNL1        0.1289
     29 C          66.1691   94.4455   11.9571 C.3     1  UNL1        0.0437
     30 C          66.8070   94.7007   10.6237 C.3     1  UNL1        0.0742
     31 C          65.1183   96.6119   10.1282 C.3     1  UNL1        0.0897
     32 N          66.3966   95.8935    9.8121 N.3     1  UNL1       -0.2703
     33 C          67.2645   96.3680    8.6845 C.3     1  UNL1        0.0897
     34 O          61.3004   89.5729    9.7181 O.3     1  UNL1       -0.4236
     35 C          61.2634   88.0749    9.6500 C.3     1  UNL1        0.5087
     36 F          62.4814   87.3134    9.2181 F       1  UNL1       -0.1550
     37 F          60.0083   87.3384   10.0140 F       1  UNL1       -0.1550
@<TRIPOS>BOND
     1    31    32    1
     2    32    33    1
     3    32    30    1
     4    30    29    1
     5    29    28    1
     6    28     1    1
     7     1     2   ar
     8     2     3   ar
     9     3    10    1
    10    10    11   ar
    11    11    12   ar
    12    12    13   ar
    13    13    14   ar
    14    14    15   ar
    15    15    16   ar
    16    16    20    1
    17    20    21    2
    18    20    22   am
    19    22    24    1
    20    24    25    1
    21    24    26    1
    22    24    27    1
    23    16    17   ar
    24    17    18   ar
    25     3     4   ar
    26     4     5   ar
    27     5     6   ar
    28     6    34    1
    29    34    35    1
    30    35    36    1
    31    35    37    1
    32     6     7   ar
    33     7     8   ar
    34     8     9   ar
    35     9     1   ar
    36    18    10   ar
    37     9     4   ar
    38    17    13    1
    39    22    23    1
    40    18    19    1
@<TRIPOS>MOLECULE
*****
 37 40 0 0 0
SMALL
GASTEIGER

@<TRIPOS>ATOM
      1 N          62.7808   85.4142   12.2530 N.ar    1  UNL1       -0.2508
      2 N          63.4937   86.3019   13.2296 N.ar    1  UNL1       -0.1678
      3 C          63.2713   87.7249   12.8104 C.ar    1  UNL1        0.1194
      4 C          62.4210   87.7166   11.5746 C.ar    1  UNL1        0.0411
      5 C          61.8837   88.8249   10.7186 C.ar    1  UNL1        0.0402
      6 C          61.0432   88.5051    9.5181 C.ar    1  UNL1        0.1444
      7 C          60.7400   87.0770    9.1737 C.ar    1  UNL1        0.0386
      8 C          61.2773   85.9687   10.0297 C.ar    1  UNL1        0.0219
      9 C          62.1179   86.2885   11.2302 C.ar    1  UNL1        0.0796
     10 C          63.8055   88.9424   13.5048 C.ar    1  UNL1        0.0957
     11 C          63.6911   89.0665   14.9952 C.ar    1  UNL1        0.1191
     12 N          64.2252   90.2840   15.6897 N.ar    1  UNL1       -0.2223
     13 C          64.8738   91.3775   14.8937 C.ar    1  UNL1        0.1784
     14 N          65.4879   92.6848   15.2985 N.ar    1  UNL1       -0.2236
     15 C          65.9818   93.3687   14.0583 C.ar    1  UNL1        0.1066
     16 C          65.6730   92.4841   12.8869 C.ar    1  UNL1        0.0910
     17 C          64.9882   91.2535   13.4033 C.ar    1  UNL1        0.0988
     18 N          64.4541   90.0360   12.7088 N.ar    1  UNL1       -0.3481
     19 H          64.5292   89.9546   11.7305 H       1  UNL1        0.1661
     20 C          65.9929   92.7785   11.4512 C.2     1  UNL1        0.2488
     21 O          65.0720   92.3059   10.3656 O.2     1  UNL1       -0.2700
     22 N          67.2336   93.5454   11.1013 N.am    1  UNL1       -0.3039
     23 H          67.8380   93.8556   11.8138 H       1  UNL1        0.1496
     24 C          67.5533   93.8397    9.6657 C.3     1  UNL1        0.0572
     25 C          68.2547   92.5188    9.5511 C.3     1  UNL1        0.0196
     26 C          66.8519   95.1607    9.7802 C.3     1  UNL1        0.0196
     27 C          67.8732   94.1340    8.2300 C.3     1  UNL1        0.0196
     28 C          62.7382   83.9153   12.2924 C.3     1  UNL1        0.1289
     29 C          63.2408   83.1822   13.5007 C.3     1  UNL1        0.0437
     30 C          62.2904   82.3831   14.3422 C.3     1  UNL1        0.0742
     31 C          62.5841   80.1991   12.9662 C.3     1  UNL1        0.0897
     32 N          61.7348   81.0900   13.8235 N.3     1  UNL1       -0.2703
     33 C          60.3300   80.6877   14.1620 C.3     1  UNL1        0.0897
     34 O          60.5058   89.6135    8.6620 O.3     1  UNL1       -0.4236
     35 C          59.6775   89.2931    7.4531 C.3     1  UNL1        0.5087
     36 F          60.0365   89.8811    6.1207 F       1  UNL1       -0.1550
     37 F          58.4902   88.3847    7.5767 F       1  UNL1       -0.1550
@<TRIPOS>BOND
     1    31    32    1
     2    32    33    1
     3    32    30    1
     4    30    29    1
     5    29    28    1
     6    28     1    1
     7     1     2   ar
     8     2     3   ar
     9     3    10    1
    10    10    11   ar
    11    11    12   ar
    12    12    13   ar
    13    13    14   ar
    14    14    15   ar
    15    15    16   ar
    16    16    20    1
    17    20    21    2
    18    20    22   am
    19    22    24    1
    20    24    25    1
    21    24    26    1
    22    24    27    1
    23    16    17   ar
    24    17    18   ar
    25     3     4   ar
    26     4     5   ar
    27     5     6   ar
    28     6    34    1
    29    34    35    1
    30    35    36    1
    31    35    37    1
    32     6     7   ar
    33     7     8   ar
    34     8     9   ar
    35     9     1   ar
    36    18    10   ar
    37     9     4   ar
    38    17    13    1
    39    22    23    1
    40    18    19    1
@<TRIPOS>MOLECULE
*****
 37 40 0 0 0
SMALL
GASTEIGER

@<TRIPOS>ATOM
      1 N          61.2236   87.9935   10.5181 N.ar    1  UNL1       -0.2508
      2 N          61.7967   89.2658   11.0684 N.ar    1  UNL1       -0.1678
      3 C          62.8065   88.9039   12.1169 C.ar    1  UNL1        0.1194
      4 C          62.8575   87.4079   12.2146 C.ar    1  UNL1        0.0411
      5 C          63.6683   86.4854   13.0757 C.ar    1  UNL1        0.0402
      6 C          63.5009   85.0003   12.9486 C.ar    1  UNL1        0.1444
      7 C          62.5226   84.4376   11.9605 C.ar    1  UNL1        0.0386
      8 C          61.7118   85.3601   11.0995 C.ar    1  UNL1        0.0219
      9 C          61.8792   86.8453   11.2265 C.ar    1  UNL1        0.0796
     10 C          63.6221   89.8686   12.9257 C.ar    1  UNL1        0.0957
     11 C          63.7570   89.6785   14.4074 C.ar    1  UNL1        0.1191
     12 N          64.5727   90.6432   15.2162 N.ar    1  UNL1       -0.2223
     13 C          65.2534   91.7980   14.5432 C.ar    1  UNL1        0.1784
     14 N          66.1167   92.9031   15.0756 N.ar    1  UNL1       -0.2236
     15 C          66.5154   93.7762   13.9230 C.ar    1  UNL1        0.1066
     16 C          65.8985   93.2107   12.6781 C.ar    1  UNL1        0.0910
     17 C          65.1185   91.9882   13.0614 C.ar    1  UNL1        0.0988
     18 N          64.3029   91.0235   12.2526 N.ar    1  UNL1       -0.3481
     19 H          64.2144   91.1483   11.2801 H       1  UNL1        0.1661
     20 C          66.0372   93.7698   11.2930 C.2     1  UNL1        0.2488
     21 O          65.1948   93.2264   10.1771 O.2     1  UNL1       -0.2700
     22 N          67.0182   94.8721   11.0239 N.am    1  UNL1       -0.3039
     23 H          67.5711   95.2286   11.7563 H       1  UNL1        0.1496
     24 C          67.1569   95.4310    9.6389 C.3     1  UNL1        0.0572
     25 C          68.0293   94.2717    9.2584 C.3     1  UNL1        0.0196
     26 C          66.2844   96.5904   10.0194 C.3     1  UNL1        0.0196
     27 C          67.2956   95.9900    8.2538 C.3     1  UNL1        0.0196
     28 C          60.1784   87.8879    9.4474 C.3     1  UNL1        0.1289
     29 C          60.5537   87.4041    8.0780 C.3     1  UNL1        0.0437
     30 C          60.4528   85.9452    7.7442 C.3     1  UNL1        0.0742
     31 C          62.9460   85.2584    7.9932 C.3     1  UNL1        0.0897
     32 N          61.6546   85.2082    7.2318 N.3     1  UNL1       -0.2703
     33 C          61.5650   84.4211    5.9581 C.3     1  UNL1        0.0897
     34 O          64.3118   84.0777   13.8097 O.3     1  UNL1       -0.4236
     35 C          63.6579   82.9007   14.4709 C.3     1  UNL1        0.5087
     36 F          62.6602   83.1165   15.5699 F       1  UNL1       -0.1550
     37 F          64.0018   81.5078   14.0329 F       1  UNL1       -0.1550
@<TRIPOS>BOND
     1    31    32    1
     2    32    33    1
     3    32    30    1
     4    30    29    1
     5    29    28    1
     6    28     1    1
     7     1     2   ar
     8     2     3   ar
     9     3    10    1
    10    10    11   ar
    11    11    12   ar
    12    12    13   ar
    13    13    14   ar
    14    14    15   ar
    15    15    16   ar
    16    16    20    1
    17    20    21    2
    18    20    22   am
    19    22    24    1
    20    24    25    1
    21    24    26    1
    22    24    27    1
    23    16    17   ar
    24    17    18   ar
    25     3     4   ar
    26     4     5   ar
    27     5     6   ar
    28     6    34    1
    29    34    35    1
    30    35    36    1
    31    35    37    1
    32     6     7   ar
    33     7     8   ar
    34     8     9   ar
    35     9     1   ar
    36    18    10   ar
    37     9     4   ar
    38    17    13    1
    39    22    23    1
    40    18    19    1
@<TRIPOS>MOLECULE
*****
 37 40 0 0 0
SMALL
GASTEIGER

@<TRIPOS>ATOM
      1 N          61.1071   88.2310   10.1744 N.ar    1  UNL1       -0.2508
      2 N          61.7119   89.4649   10.7757 N.ar    1  UNL1       -0.1678
      3 C          62.6856   89.0358   11.8330 C.ar    1  UNL1        0.1194
      4 C          62.6826   87.5367   11.8851 C.ar    1  UNL1        0.0411
      5 C          63.4421   86.5604   12.7335 C.ar    1  UNL1        0.0402
      6 C          63.2261   85.0866   12.5568 C.ar    1  UNL1        0.1444
      7 C          62.2504   84.5892   11.5318 C.ar    1  UNL1        0.0386
      8 C          61.4909   85.5655   10.6834 C.ar    1  UNL1        0.0219
      9 C          61.7070   87.0393   10.8600 C.ar    1  UNL1        0.0796
     10 C          63.5166   89.9460   12.6880 C.ar    1  UNL1        0.0957
     11 C          63.6475   89.6811   14.1585 C.ar    1  UNL1        0.1191
     12 N          64.4785   90.5913   15.0136 N.ar    1  UNL1       -0.2223
     13 C          65.1784   91.7665   14.3980 C.ar    1  UNL1        0.1784
     14 N          66.0595   92.8297   14.9839 N.ar    1  UNL1       -0.2236
     15 C          66.4731   93.7518   13.8755 C.ar    1  UNL1        0.1066
     16 C          65.8477   93.2585   12.6045 C.ar    1  UNL1        0.0910
     17 C          65.0475   92.0315   12.9275 C.ar    1  UNL1        0.0988
     18 N          64.2166   91.1213   12.0724 N.ar    1  UNL1       -0.3481
     19 H          64.1307   91.2952   11.1072 H       1  UNL1        0.1661
     20 C          65.9963   93.8826   11.2486 C.2     1  UNL1        0.2488
     21 O          64.9923   93.5887   10.1736 O.2     1  UNL1       -0.2700
     22 N          67.1489   94.8005   10.9677 N.am    1  UNL1       -0.3039
     23 H          67.8078   94.9934   11.6733 H       1  UNL1        0.1496
     24 C          67.2974   95.4245    9.6118 C.3     1  UNL1        0.0572
     25 C          68.0128   94.1989    9.1261 C.3     1  UNL1        0.0196
     26 C          66.5820   96.6503   10.0975 C.3     1  UNL1        0.0196
     27 C          67.4460   96.0486    8.2559 C.3     1  UNL1        0.0196
     28 C          60.0822   88.1950    9.0797 C.3     1  UNL1        0.1289
     29 C          59.9968   89.3233    8.0949 C.3     1  UNL1        0.0437
     30 C          59.2420   89.1429    6.8113 C.3     1  UNL1        0.0742
     31 C          60.3789   90.8041    5.1689 C.3     1  UNL1        0.0897
     32 N          59.1424   90.2767    5.8342 N.3     1  UNL1       -0.2703
     33 C          57.8062   90.8830    5.5225 C.3     1  UNL1        0.0897
     34 O          63.9856   84.1102   13.4052 O.3     1  UNL1       -0.4236
     35 C          63.5228   82.6871   13.5077 C.3     1  UNL1        0.5087
     36 F          62.4960   82.3043   14.5320 F       1  UNL1       -0.1550
     37 F          64.0868   81.6467   12.5859 F       1  UNL1       -0.1550
@<TRIPOS>BOND
     1    31    32    1
     2    32    33    1
     3    32    30    1
     4    30    29    1
     5    29    28    1
     6    28     1    1
     7     1     2   ar
     8     2     3   ar
     9     3    10    1
    10    10    11   ar
    11    11    12   ar
    12    12    13   ar
    13    13    14   ar
    14    14    15   ar
    15    15    16   ar
    16    16    20    1
    17    20    21    2
    18    20    22   am
    19    22    24    1
    20    24    25    1
    21    24    26    1
    22    24    27    1
    23    16    17   ar
    24    17    18   ar
    25     3     4   ar
    26     4     5   ar
    27     5     6   ar
    28     6    34    1
    29    34    35    1
    30    35    36    1
    31    35    37    1
    32     6     7   ar
    33     7     8   ar
    34     8     9   ar
    35     9     1   ar
    36    18    10   ar
    37     9     4   ar
    38    17    13    1
    39    22    23    1
    40    18    19    1
@<TRIPOS>MOLECULE
*****
 37 40 0 0 0
SMALL
GASTEIGER

@<TRIPOS>ATOM
      1 N          63.8438   85.5406   14.1327 N.ar    1  UNL1       -0.2508
      2 N          64.3815   86.7035   14.9129 N.ar    1  UNL1       -0.1678
      3 C          64.0526   87.9585   14.1600 C.ar    1  UNL1        0.1194
      4 C          63.3116   87.5713   12.9146 C.ar    1  UNL1        0.0411
      5 C          62.7378   88.3863   11.7938 C.ar    1  UNL1        0.0402
      6 C          62.0349   87.7070   10.6561 C.ar    1  UNL1        0.1444
      7 C          61.9058   86.2127   10.6392 C.ar    1  UNL1        0.0386
      8 C          62.4797   85.3976   11.7600 C.ar    1  UNL1        0.0219
      9 C          63.1826   86.0769   12.8977 C.ar    1  UNL1        0.0796
     10 C          64.4031   89.3555   14.5790 C.ar    1  UNL1        0.0957
     11 C          63.7760   89.9506   15.8047 C.ar    1  UNL1        0.1191
     12 N          64.1265   91.3476   16.2237 N.ar    1  UNL1       -0.2223
     13 C          65.1042   92.1495   15.4169 C.ar    1  UNL1        0.1784
     14 N          65.6398   93.5408   15.5827 N.ar    1  UNL1       -0.2236
     15 C          66.5980   93.8056   14.4595 C.ar    1  UNL1        0.1066
     16 C          66.6547   92.5779   13.5995 C.ar    1  UNL1        0.0910
     17 C          65.7315   91.5544   14.1912 C.ar    1  UNL1        0.0988
     18 N          65.3810   90.1574   13.7722 N.ar    1  UNL1       -0.3481
     19 H          65.7927   89.7669   12.9677 H       1  UNL1        0.1661
     20 C          67.4883   92.4043   12.3645 C.2     1  UNL1        0.2488
     21 O          68.7873   91.6577   12.4354 O.2     1  UNL1       -0.2700
     22 N          67.0228   92.9773   11.0588 N.am    1  UNL1       -0.3039
     23 H          66.1702   93.4673   11.0123 H       1  UNL1        0.1496
     24 C          67.8563   92.8036    9.8239 C.3     1  UNL1        0.0572
     25 C          67.8424   94.2876    9.6058 C.3     1  UNL1        0.0196
     26 C          67.8702   91.3195   10.0419 C.3     1  UNL1        0.0196
     27 C          68.6899   92.6300    8.5889 C.3     1  UNL1        0.0196
     28 C          63.9489   84.0952   14.5196 C.3     1  UNL1        0.1289
     29 C          63.4060   83.0337   13.6092 C.3     1  UNL1        0.0437
     30 C          64.3187   82.3316   12.6479 C.3     1  UNL1        0.0742
     31 C          64.2877   82.9292   10.1198 C.3     1  UNL1        0.0897
     32 N          63.8568   82.0426   11.2504 N.3     1  UNL1       -0.2703
     33 C          62.9642   80.8671   10.9834 C.3     1  UNL1        0.0897
     34 O          61.4609   88.5221    9.5352 O.3     1  UNL1       -0.4236
     35 C          61.2544   89.9975    9.7101 C.3     1  UNL1        0.5087
     36 F          62.4219   90.9345    9.6159 F       1  UNL1       -0.1550
     37 F          59.8804   90.5358    9.9791 F       1  UNL1       -0.1550
@<TRIPOS>BOND
     1    31    32    1
     2    32    33    1
     3    32    30    1
     4    30    29    1
     5    29    28    1
     6    28     1    1
     7     1     2   ar
     8     2     3   ar
     9     3    10    1
    10    10    11   ar
    11    11    12   ar
    12    12    13   ar
    13    13    14   ar
    14    14    15   ar
    15    15    16   ar
    16    16    20    1
    17    20    21    2
    18    20    22   am
    19    22    24    1
    20    24    25    1
    21    24    26    1
    22    24    27    1
    23    16    17   ar
    24    17    18   ar
    25     3     4   ar
    26     4     5   ar
    27     5     6   ar
    28     6    34    1
    29    34    35    1
    30    35    36    1
    31    35    37    1
    32     6     7   ar
    33     7     8   ar
    34     8     9   ar
    35     9     1   ar
    36    18    10   ar
    37     9     4   ar
    38    17    13    1
    39    22    23    1
    40    18    19    1
@<TRIPOS>MOLECULE
*****
 37 40 0 0 0
SMALL
GASTEIGER

@<TRIPOS>ATOM
      1 N          61.9831   87.6297   10.1449 N.ar    1  UNL1       -0.2508
      2 N          62.5295   88.9196   10.6813 N.ar    1  UNL1       -0.1678
      3 C          63.2352   88.6231   11.9713 C.ar    1  UNL1        0.1194
      4 C          63.1251   87.1501   12.2321 C.ar    1  UNL1        0.0411
      5 C          63.6295   86.2885   13.3516 C.ar    1  UNL1        0.0402
      6 C          63.3600   84.8130   13.3423 C.ar    1  UNL1        0.1444
      7 C          62.5862   84.1990   12.2135 C.ar    1  UNL1        0.0386
      8 C          62.0818   85.0606   11.0940 C.ar    1  UNL1        0.0219
      9 C          62.3512   86.5361   11.1033 C.ar    1  UNL1        0.0796
     10 C          63.9293   89.6240   12.8468 C.ar    1  UNL1        0.0957
     11 C          64.0433   89.3786   14.3221 C.ar    1  UNL1        0.1191
     12 N          64.7374   90.3795   15.1976 N.ar    1  UNL1       -0.2223
     13 C          65.3175   91.6259   14.5977 C.ar    1  UNL1        0.1784
     14 N          66.0524   92.7840   15.2049 N.ar    1  UNL1       -0.2236
     15 C          66.3926   93.7453   14.1048 C.ar    1  UNL1        0.1066
     16 C          65.8680   93.1813   12.8177 C.ar    1  UNL1        0.0910
     17 C          65.2036   91.8714   13.1223 C.ar    1  UNL1        0.0988
     18 N          64.5095   90.8705   12.2468 N.ar    1  UNL1       -0.3481
     19 H          64.4347   91.0317   11.2785 H       1  UNL1        0.1661
     20 C          65.9870   93.8158   11.4637 C.2     1  UNL1        0.2488
     21 O          65.1707   93.2960   10.3176 O.2     1  UNL1       -0.2700
     22 N          66.9222   94.9699   11.2558 N.am    1  UNL1       -0.3039
     23 H          67.4579   95.3110   12.0080 H       1  UNL1        0.1496
     24 C          67.0411   95.6043    9.9018 C.3     1  UNL1        0.0572
     25 C          67.9633   94.5040    9.4672 C.3     1  UNL1        0.0196
     26 C          66.1189   96.7047   10.3363 C.3     1  UNL1        0.0196
     27 C          67.1600   96.2388    8.5477 C.3     1  UNL1        0.0196
     28 C          61.2052   87.4627    8.8733 C.3     1  UNL1        0.1289
     29 C          59.8270   88.0431    8.7554 C.3     1  UNL1        0.0437
     30 C          58.9811   88.2217    9.9812 C.3     1  UNL1        0.0742
     31 C          59.1870   88.9661   12.4618 C.3     1  UNL1        0.0897
     32 N          59.3464   89.2606   10.9996 N.3     1  UNL1       -0.2703
     33 C          59.8710   90.5940   10.5559 C.3     1  UNL1        0.0897
     34 O          63.8644   83.9514   14.4618 O.3     1  UNL1       -0.4236
     35 C          63.3508   82.5510   14.6203 C.3     1  UNL1        0.5087
     36 F          61.9719   82.3147   15.1614 F       1  UNL1       -0.1550
     37 F          64.2160   81.3869   14.2377 F       1  UNL1       -0.1550
@<TRIPOS>BOND
     1    31    32    1
     2    32    33    1
     3    32    30    1
     4    30    29    1
     5    29    28    1
     6    28     1    1
     7     1     2   ar
     8     2     3   ar
     9     3    10    1
    10    10    11   ar
    11    11    12   ar
    12    12    13   ar
    13    13    14   ar
    14    14    15   ar
    15    15    16   ar
    16    16    20    1
    17    20    21    2
    18    20    22   am
    19    22    24    1
    20    24    25    1
    21    24    26    1
    22    24    27    1
    23    16    17   ar
    24    17    18   ar
    25     3     4   ar
    26     4     5   ar
    27     5     6   ar
    28     6    34    1
    29    34    35    1
    30    35    36    1
    31    35    37    1
    32     6     7   ar
    33     7     8   ar
    34     8     9   ar
    35     9     1   ar
    36    18    10   ar
    37     9     4   ar
    38    17    13    1
    39    22    23    1
    40    18    19    1
