@<TRIPOS>MOLECULE
*****
 46 49 0 0 0
SMALL
GASTEIGER

@<TRIPOS>ATOM
      1 N          63.2490   89.5563   12.6217 N.ar    1  UNL1       -0.2470
      2 C          62.3849   89.3482   11.4135 C.ar    1  UNL1        0.2657
      3 O          61.8214   90.5302   10.6818 O.2     1  UNL1       -0.2668
      4 C          62.0844   87.9581   10.9368 C.ar    1  UNL1        0.0759
      5 C          62.6479   86.7761   11.6685 C.ar    1  UNL1        0.0848
      6 N          63.5119   86.9842   12.8768 N.ar    1  UNL1       -0.2755
      7 C          63.8125   88.3743   13.3534 C.ar    1  UNL1        0.3341
      8 O          64.6766   88.5825   14.5618 O.2     1  UNL1       -0.2462
      9 C          61.2202   87.7500    9.7285 C.ar    1  UNL1        0.0366
     10 C          60.2862   88.8341    9.2786 C.ar    1  UNL1        0.0026
     11 C          59.4221   88.6260    8.0704 C.ar    1  UNL1        0.0033
     12 C          59.4920   87.3337    7.3118 C.ar    1  UNL1        0.0392
     13 C          60.4260   86.2496    7.7617 C.ar    1  UNL1        0.1660
     14 C          61.2902   86.4578    8.9700 C.ar    1  UNL1        0.1739
     15 F          62.2242   85.3737    9.4198 F       1  UNL1       -0.2010
     16 O          60.4960   84.9574    7.0032 O.3     1  UNL1       -0.4692
     17 C          61.7461   84.5909    6.2598 C.3     1  UNL1        0.2526
     18 C          63.5496   90.9465   13.0984 C.3     1  UNL1        0.1337
     19 C          64.8653   91.5854   12.7656 C.3     1  UNL1        0.1000
     20 C          65.8468   91.8938   13.8573 C.ar    1  UNL1       -0.0061
     21 C          65.3636   92.1139   15.2601 C.ar    1  UNL1       -0.0029
     22 C          66.3450   92.4222   16.3517 C.ar    1  UNL1       -0.0003
     23 C          67.8097   92.5105   16.0404 C.ar    1  UNL1       -0.0000
     24 C          68.2929   92.2905   14.6376 C.ar    1  UNL1       -0.0003
     25 C          67.3115   91.9821   13.5460 C.ar    1  UNL1       -0.0029
     26 N          65.1995   91.9159   11.3412 N.3     1  UNL1       -0.2935
     27 H          66.1665   91.6281   11.1912 H       1  UNL1        0.1236
     28 C          65.0880   93.3301   10.8534 C.3     1  UNL1        0.0694
     29 C          66.0460   94.3723   11.3494 C.3     1  UNL1        0.0287
     30 C          66.7389   95.2784   10.3754 C.3     1  UNL1        0.1110
     31 C          67.5824   94.6972    9.2797 C.2     1  UNL1        0.3171
     32 O          67.2486   94.9813    7.8452 O.2     1  UNL1       -0.2501
     33 C          68.7386   92.3705    9.2805 C.3     1  UNL1        0.2556
     34 O          68.7598   93.8318    9.6185 O.3     1  UNL1       -0.4444
     35 C          64.0754   85.8022   13.6084 C.3     1  UNL1        0.1394
     36 C          63.4136   84.4614   13.4896 C.ar    1  UNL1        0.0319
     37 C          63.5533   83.6654   12.2259 C.ar    1  UNL1        0.1379
     38 F          64.3547   84.2104   11.0810 F       1  UNL1       -0.2044
     39 C          62.8915   82.3246   12.1070 C.ar    1  UNL1        0.0294
     40 C          62.0900   81.7797   13.2519 C.ar    1  UNL1        0.0022
     41 C          61.9504   82.5756   14.5156 C.ar    1  UNL1        0.0037
     42 C          62.6122   83.9165   14.6345 C.ar    1  UNL1        0.0714
     43 C          62.4726   84.7124   15.8982 C.3     1  UNL1        0.4184
     44 F          62.3329   85.5083   17.1619 F       1  UNL1       -0.1659
     45 F          61.0189   84.9308   15.6000 F       1  UNL1       -0.1659
     46 F          63.9263   84.4940   16.1964 F       1  UNL1       -0.1659
@<TRIPOS>BOND
     1    33    34    1
     2    34    31    1
     3    31    32    2
     4    31    30    1
     5    30    29    1
     6    29    28    1
     7    28    26    1
     8    26    19    1
     9    19    18    1
    10    18     1    1
    11     1     2   ar
    12     2     3    2
    13     2     4   ar
    14     4     9    1
    15     9    10   ar
    16    10    11   ar
    17    11    12   ar
    18    12    13   ar
    19    13    16    1
    20    16    17    1
    21    13    14   ar
    22    14    15    1
    23     4     5   ar
    24     5     6   ar
    25     6    35    1
    26    35    36    1
    27    36    37   ar
    28    37    38    1
    29    37    39   ar
    30    39    40   ar
    31    40    41   ar
    32    41    42   ar
    33    42    43    1
    34    43    44    1
    35    43    45    1
    36    43    46    1
    37     6     7   ar
    38     7     8    2
    39    19    20    1
    40    20    21   ar
    41    21    22   ar
    42    22    23   ar
    43    23    24   ar
    44    24    25   ar
    45     7     1   ar
    46    25    20   ar
    47    14     9   ar
    48    42    36   ar
    49    26    27    1
@<TRIPOS>MOLECULE
*****
 46 49 0 0 0
SMALL
GASTEIGER

@<TRIPOS>ATOM
      1 N          63.3701   88.8741   13.1525 N.ar    1  UNL1       -0.2470
      2 C          62.4987   88.8915   11.9318 C.ar    1  UNL1        0.2657
      3 O          61.9331   90.1880   11.4325 O.2     1  UNL1       -0.2668
      4 C          62.1928   87.6125   11.2104 C.ar    1  UNL1        0.0759
      5 C          62.7583   86.3160   11.7098 C.ar    1  UNL1        0.0848
      6 N          63.6297   86.2986   12.9305 N.ar    1  UNL1       -0.2755
      7 C          63.9356   87.5776   13.6519 C.ar    1  UNL1        0.3341
      8 O          64.8071   87.5602   14.8727 O.2     1  UNL1       -0.2462
      9 C          61.3213   87.6299    9.9896 C.ar    1  UNL1        0.0366
     10 C          60.5451   88.8649    9.6397 C.ar    1  UNL1        0.0026
     11 C          59.6737   88.8823    8.4190 C.ar    1  UNL1        0.0033
     12 C          59.5784   87.6647    7.5481 C.ar    1  UNL1        0.0392
     13 C          60.3545   86.4297    7.8979 C.ar    1  UNL1        0.1660
     14 C          61.2260   86.4123    9.1188 C.ar    1  UNL1        0.1739
     15 F          62.0021   85.1773    9.4686 F       1  UNL1       -0.2010
     16 O          60.2592   85.2122    7.0271 O.3     1  UNL1       -0.4692
     17 C          61.4858   84.6764    6.3502 C.3     1  UNL1        0.2526
     18 C          63.6761   90.1532   13.8740 C.3     1  UNL1        0.1337
     19 C          64.7169   91.0884   13.3339 C.3     1  UNL1        0.1000
     20 C          65.7992   91.6067   14.2340 C.ar    1  UNL1       -0.0061
     21 C          65.4635   92.0708   15.6203 C.ar    1  UNL1       -0.0029
     22 C          66.5458   92.5890   16.5203 C.ar    1  UNL1       -0.0003
     23 C          67.9638   92.6431   16.0340 C.ar    1  UNL1       -0.0000
     24 C          68.2994   92.1790   14.6477 C.ar    1  UNL1       -0.0003
     25 C          67.2172   91.6608   13.7477 C.ar    1  UNL1       -0.0029
     26 N          64.6756   91.5055   11.8936 N.3     1  UNL1       -0.2935
     27 H          65.3457   90.9179   11.3975 H       1  UNL1        0.1236
     28 C          64.9803   92.9245   11.5147 C.3     1  UNL1        0.0694
     29 C          65.8104   93.2146   10.2994 C.3     1  UNL1        0.0287
     30 C          66.4522   94.5600   10.1331 C.3     1  UNL1        0.1110
     31 C          67.7006   94.6994    9.3133 C.2     1  UNL1        0.3171
     32 O          68.8872   93.8278    9.5999 O.2     1  UNL1       -0.2501
     33 C          66.7234   96.7885    8.1173 C.3     1  UNL1        0.2556
     34 O          67.7624   95.7103    8.2069 O.3     1  UNL1       -0.4444
     35 C          64.1952   85.0021   13.4298 C.3     1  UNL1        0.1394
     36 C          63.3083   83.8002   13.5668 C.ar    1  UNL1        0.0319
     37 C          62.4333   83.6476   14.7756 C.ar    1  UNL1        0.1379
     38 F          62.4452   84.6970   15.8474 F       1  UNL1       -0.2044
     39 C          61.5463   82.4458   14.9125 C.ar    1  UNL1        0.0294
     40 C          61.5344   81.3964   13.8407 C.ar    1  UNL1        0.0022
     41 C          62.4093   81.5490   12.6320 C.ar    1  UNL1        0.0037
     42 C          63.2963   82.7509   12.4950 C.ar    1  UNL1        0.0714
     43 C          64.1713   82.9034   11.2862 C.3     1  UNL1        0.4184
     44 F          65.0463   83.0560   10.0775 F       1  UNL1       -0.1659
     45 F          63.0239   83.5070   10.5319 F       1  UNL1       -0.1659
     46 F          65.3187   82.2999   12.0406 F       1  UNL1       -0.1659
@<TRIPOS>BOND
     1    33    34    1
     2    34    31    1
     3    31    32    2
     4    31    30    1
     5    30    29    1
     6    29    28    1
     7    28    26    1
     8    26    19    1
     9    19    18    1
    10    18     1    1
    11     1     2   ar
    12     2     3    2
    13     2     4   ar
    14     4     9    1
    15     9    10   ar
    16    10    11   ar
    17    11    12   ar
    18    12    13   ar
    19    13    16    1
    20    16    17    1
    21    13    14   ar
    22    14    15    1
    23     4     5   ar
    24     5     6   ar
    25     6    35    1
    26    35    36    1
    27    36    37   ar
    28    37    38    1
    29    37    39   ar
    30    39    40   ar
    31    40    41   ar
    32    41    42   ar
    33    42    43    1
    34    43    44    1
    35    43    45    1
    36    43    46    1
    37     6     7   ar
    38     7     8    2
    39    19    20    1
    40    20    21   ar
    41    21    22   ar
    42    22    23   ar
    43    23    24   ar
    44    24    25   ar
    45     7     1   ar
    46    25    20   ar
    47    14     9   ar
    48    42    36   ar
    49    26    27    1
@<TRIPOS>MOLECULE
*****
 46 49 0 0 0
SMALL
GASTEIGER

@<TRIPOS>ATOM
      1 N          62.9217   89.1464   12.7522 N.ar    1  UNL1       -0.2470
      2 C          62.0877   88.9954   11.5147 C.ar    1  UNL1        0.2657
      3 O          61.4167   90.1937   10.9116 O.2     1  UNL1       -0.2668
      4 C          61.9245   87.6460   10.8803 C.ar    1  UNL1        0.0759
      5 C          62.5954   86.4476   11.4835 C.ar    1  UNL1        0.0848
      6 N          63.4295   86.5986   12.7210 N.ar    1  UNL1       -0.2755
      7 C          63.5927   87.9480   13.3553 C.ar    1  UNL1        0.3341
      8 O          64.4268   88.0991   14.5929 O.2     1  UNL1       -0.2462
      9 C          61.0904   87.4949    9.6428 C.ar    1  UNL1        0.0366
     10 C          60.1497   88.5895    9.2341 C.ar    1  UNL1        0.0026
     11 C          59.3156   88.4385    7.9966 C.ar    1  UNL1        0.0033
     12 C          59.4222   87.1928    7.1677 C.ar    1  UNL1        0.0392
     13 C          60.3628   86.0982    7.5764 C.ar    1  UNL1        0.1660
     14 C          61.1970   86.2493    8.8139 C.ar    1  UNL1        0.1739
     15 F          62.1376   85.1547    9.2226 F       1  UNL1       -0.2010
     16 O          60.4694   84.8526    6.7475 O.3     1  UNL1       -0.4692
     17 C          61.7722   84.4944    6.0962 C.3     1  UNL1        0.2526
     18 C          63.0849   90.4959   13.3867 C.3     1  UNL1        0.1337
     19 C          64.4492   91.1071   13.5089 C.3     1  UNL1        0.1000
     20 C          64.9378   92.0662   12.4641 C.ar    1  UNL1       -0.0061
     21 C          64.5467   91.8747   11.0287 C.ar    1  UNL1       -0.0029
     22 C          65.0353   92.8337    9.9840 C.ar    1  UNL1       -0.0003
     23 C          65.9149   93.9842   10.3746 C.ar    1  UNL1       -0.0000
     24 C          66.3060   94.1757   11.8100 C.ar    1  UNL1       -0.0003
     25 C          65.8174   93.2167   12.8547 C.ar    1  UNL1       -0.0029
     26 N          65.3251   90.7593   14.6759 N.3     1  UNL1       -0.2935
     27 H          65.0567   89.8223   14.9766 H       1  UNL1        0.1236
     28 C          65.3209   91.6250   15.9010 C.3     1  UNL1        0.0694
     29 C          66.3643   92.6893   16.0708 C.3     1  UNL1        0.0287
     30 C          67.8065   92.3076   16.2265 C.3     1  UNL1        0.1110
     31 C          68.8720   93.1030   15.5323 C.2     1  UNL1        0.3171
     32 O          69.3714   94.3797   16.1409 O.2     1  UNL1       -0.2501
     33 C          68.6721   91.6367   13.3969 C.3     1  UNL1        0.2556
     34 O          69.4382   92.6216   14.2293 O.3     1  UNL1       -0.4444
     35 C          64.1005   85.4003   13.3241 C.3     1  UNL1        0.1394
     36 C          63.4422   84.0546   13.2480 C.ar    1  UNL1        0.0319
     37 C          63.5462   83.2387   11.9936 C.ar    1  UNL1        0.1379
     38 F          64.3085   83.7684   10.8153 F       1  UNL1       -0.2044
     39 C          62.8879   81.8930   11.9175 C.ar    1  UNL1        0.0294
     40 C          62.1256   81.3633   13.0957 C.ar    1  UNL1        0.0022
     41 C          62.0215   82.1792   14.3500 C.ar    1  UNL1        0.0037
     42 C          62.6799   83.5249   14.4262 C.ar    1  UNL1        0.0714
     43 C          62.5758   84.3408   15.6805 C.3     1  UNL1        0.4184
     44 F          62.4718   85.1567   16.9349 F       1  UNL1       -0.1659
     45 F          63.9635   83.9231   16.0674 F       1  UNL1       -0.1659
     46 F          61.1881   84.7585   15.2937 F       1  UNL1       -0.1659
@<TRIPOS>BOND
     1    33    34    1
     2    34    31    1
     3    31    32    2
     4    31    30    1
     5    30    29    1
     6    29    28    1
     7    28    26    1
     8    26    19    1
     9    19    18    1
    10    18     1    1
    11     1     2   ar
    12     2     3    2
    13     2     4   ar
    14     4     9    1
    15     9    10   ar
    16    10    11   ar
    17    11    12   ar
    18    12    13   ar
    19    13    16    1
    20    16    17    1
    21    13    14   ar
    22    14    15    1
    23     4     5   ar
    24     5     6   ar
    25     6    35    1
    26    35    36    1
    27    36    37   ar
    28    37    38    1
    29    37    39   ar
    30    39    40   ar
    31    40    41   ar
    32    41    42   ar
    33    42    43    1
    34    43    44    1
    35    43    45    1
    36    43    46    1
    37     6     7   ar
    38     7     8    2
    39    19    20    1
    40    20    21   ar
    41    21    22   ar
    42    22    23   ar
    43    23    24   ar
    44    24    25   ar
    45     7     1   ar
    46    25    20   ar
    47    14     9   ar
    48    42    36   ar
    49    26    27    1
@<TRIPOS>MOLECULE
*****
 46 49 0 0 0
SMALL
GASTEIGER

@<TRIPOS>ATOM
      1 N          61.7759   87.1888   11.7467 N.ar    1  UNL1       -0.2470
      2 C          62.2035   88.3882   12.5393 C.ar    1  UNL1        0.2657
      3 O          61.4952   89.6981   12.3585 O.2     1  UNL1       -0.2668
      4 C          63.3393   88.2779   13.5129 C.ar    1  UNL1        0.0759
      5 C          64.0475   86.9681   13.6937 C.ar    1  UNL1        0.0848
      6 N          63.6200   85.7686   12.9010 N.ar    1  UNL1       -0.2755
      7 C          62.4842   85.8789   11.9275 C.ar    1  UNL1        0.3341
      8 O          62.0566   84.6794   11.1347 O.2     1  UNL1       -0.2462
      9 C          63.7668   89.4774   14.3056 C.ar    1  UNL1        0.0366
     10 C          63.4570   89.5572   15.7711 C.ar    1  UNL1        0.0026
     11 C          63.8845   90.7566   16.5638 C.ar    1  UNL1        0.0033
     12 C          64.6220   91.8764   15.8911 C.ar    1  UNL1        0.0392
     13 C          64.9318   91.7966   14.4257 C.ar    1  UNL1        0.1660
     14 C          64.5042   90.5971   13.6329 C.ar    1  UNL1        0.1739
     15 F          64.8141   90.5173   12.1674 F       1  UNL1       -0.2010
     16 O          65.6692   92.9162   13.7529 O.3     1  UNL1       -0.4692
     17 C          66.8266   93.5740   14.4441 C.3     1  UNL1        0.2526
     18 C          60.6401   87.2991   10.7731 C.3     1  UNL1        0.1337
     19 C          60.9155   87.6073    9.3312 C.3     1  UNL1        0.1000
     20 C          61.3089   86.5068    8.3908 C.ar    1  UNL1       -0.0061
     21 C          62.7229   86.0067    8.3713 C.ar    1  UNL1       -0.0029
     22 C          63.1163   84.9063    7.4310 C.ar    1  UNL1       -0.0003
     23 C          62.0957   84.3060    6.5102 C.ar    1  UNL1       -0.0000
     24 C          60.6817   84.8061    6.5296 C.ar    1  UNL1       -0.0003
     25 C          60.2883   85.9065    7.4700 C.ar    1  UNL1       -0.0029
     26 N          60.7974   89.0160    8.8296 N.3     1  UNL1       -0.2935
     27 H          60.9683   89.6280    9.6275 H       1  UNL1        0.1236
     28 C          59.5212   89.4809    8.1928 C.3     1  UNL1        0.0694
     29 C          59.3035   89.2877    6.7213 C.3     1  UNL1        0.0287
     30 C          59.6793   90.3747    5.7584 C.3     1  UNL1        0.1110
     31 C          58.6366   91.3343    5.2665 C.2     1  UNL1        0.3171
     32 O          57.1822   90.9873    5.3855 O.2     1  UNL1       -0.2501
     33 C          59.7816   92.6589    3.3471 C.3     1  UNL1        0.2556
     34 O          59.0483   92.6408    4.6555 O.3     1  UNL1       -0.4444
     35 C          64.3283   84.4587   13.0818 C.3     1  UNL1        0.1394
     36 C          63.5390   83.1875   13.1859 C.ar    1  UNL1        0.0319
     37 C          63.6175   82.1642   12.0919 C.ar    1  UNL1        0.1379
     38 F          64.4852   82.4122   10.8938 F       1  UNL1       -0.2044
     39 C          62.8282   80.8929   12.1961 C.ar    1  UNL1        0.0294
     40 C          61.9605   80.6448   13.3943 C.ar    1  UNL1        0.0022
     41 C          61.8821   81.6680   14.4882 C.ar    1  UNL1        0.0037
     42 C          62.6713   82.9394   14.3841 C.ar    1  UNL1        0.0714
     43 C          62.5929   83.9626   15.4781 C.3     1  UNL1        0.4184
     44 F          62.5144   84.9858   16.5720 F       1  UNL1       -0.1659
     45 F          63.9056   83.4820   16.0217 F       1  UNL1       -0.1659
     46 F          61.2801   84.4432   14.9344 F       1  UNL1       -0.1659
@<TRIPOS>BOND
     1    33    34    1
     2    34    31    1
     3    31    32    2
     4    31    30    1
     5    30    29    1
     6    29    28    1
     7    28    26    1
     8    26    19    1
     9    19    18    1
    10    18     1    1
    11     1     2   ar
    12     2     3    2
    13     2     4   ar
    14     4     9    1
    15     9    10   ar
    16    10    11   ar
    17    11    12   ar
    18    12    13   ar
    19    13    16    1
    20    16    17    1
    21    13    14   ar
    22    14    15    1
    23     4     5   ar
    24     5     6   ar
    25     6    35    1
    26    35    36    1
    27    36    37   ar
    28    37    38    1
    29    37    39   ar
    30    39    40   ar
    31    40    41   ar
    32    41    42   ar
    33    42    43    1
    34    43    44    1
    35    43    45    1
    36    43    46    1
    37     6     7   ar
    38     7     8    2
    39    19    20    1
    40    20    21   ar
    41    21    22   ar
    42    22    23   ar
    43    23    24   ar
    44    24    25   ar
    45     7     1   ar
    46    25    20   ar
    47    14     9   ar
    48    42    36   ar
    49    26    27    1
@<TRIPOS>MOLECULE
*****
 46 49 0 0 0
SMALL
GASTEIGER

@<TRIPOS>ATOM
      1 N          63.5352   86.7797   12.9277 N.ar    1  UNL1       -0.2470
      2 C          62.6603   86.5842   11.7251 C.ar    1  UNL1        0.2657
      3 O          62.3189   85.1985   11.2631 O.2     1  UNL1       -0.2668
      4 C          62.1267   87.7744   10.9844 C.ar    1  UNL1        0.0759
      5 C          62.4681   89.1601   11.4463 C.ar    1  UNL1        0.0848
      6 N          63.3430   89.3556   12.6489 N.ar    1  UNL1       -0.2755
      7 C          63.8765   88.1653   13.3896 C.ar    1  UNL1        0.3341
      8 O          64.7515   88.3607   14.5923 O.2     1  UNL1       -0.2462
      9 C          61.2518   87.5790    9.7817 C.ar    1  UNL1        0.0366
     10 C          61.0839   86.2106    9.1908 C.ar    1  UNL1        0.0026
     11 C          60.2090   86.0151    7.9882 C.ar    1  UNL1        0.0033
     12 C          59.5019   87.1882    7.3765 C.ar    1  UNL1        0.0392
     13 C          59.6698   88.5566    7.9674 C.ar    1  UNL1        0.1660
     14 C          60.5448   88.7520    9.1701 C.ar    1  UNL1        0.1739
     15 F          60.7126   90.1204    9.7610 F       1  UNL1       -0.2010
     16 O          58.9628   89.7296    7.3557 O.3     1  UNL1       -0.4692
     17 C          59.2569   90.1275    5.9397 C.3     1  UNL1        0.2526
     18 C          64.0688   85.5894   13.6684 C.3     1  UNL1        0.1337
     19 C          63.1260   84.6625   14.3770 C.3     1  UNL1        0.1000
     20 C          62.9332   83.2618   13.8760 C.ar    1  UNL1       -0.0061
     21 C          63.8207   82.7238   12.7931 C.ar    1  UNL1       -0.0029
     22 C          63.6278   81.3232   12.2921 C.ar    1  UNL1       -0.0003
     23 C          62.5475   80.4606   12.8742 C.ar    1  UNL1       -0.0000
     24 C          61.6600   80.9986   13.9571 C.ar    1  UNL1       -0.0003
     25 C          61.8528   82.3992   14.4580 C.ar    1  UNL1       -0.0029
     26 N          62.3761   85.1363   15.5866 N.3     1  UNL1       -0.2935
     27 H          61.6896   85.8163   15.2598 H       1  UNL1        0.1236
     28 C          63.1149   85.7787   16.7231 C.3     1  UNL1        0.0694
     29 C          62.4586   86.8614   17.5276 C.3     1  UNL1        0.0287
     30 C          63.0765   88.2266   17.5928 C.3     1  UNL1        0.1110
     31 C          62.6419   89.2932   16.6318 C.2     1  UNL1        0.3171
     32 O          61.2514   89.2749   16.0696 O.2     1  UNL1       -0.2501
     33 C          63.5182   91.7257   16.8869 C.3     1  UNL1        0.2556
     34 O          63.5978   90.3781   16.2329 O.3     1  UNL1       -0.4444
     35 C          63.6844   90.7412   13.1108 C.3     1  UNL1        0.1394
     36 C          64.6479   91.5784   12.3230 C.ar    1  UNL1        0.0319
     37 C          64.3900   91.8525   10.8709 C.ar    1  UNL1        0.1379
     38 F          63.1685   91.2895   10.2068 F       1  UNL1       -0.2044
     39 C          65.3535   92.6897   10.0831 C.ar    1  UNL1        0.0294
     40 C          66.5749   93.2527   10.7472 C.ar    1  UNL1        0.0022
     41 C          66.8329   92.9786   12.1992 C.ar    1  UNL1        0.0037
     42 C          65.8693   92.1414   12.9871 C.ar    1  UNL1        0.0714
     43 C          66.1273   91.8673   14.4391 C.3     1  UNL1        0.4184
     44 F          66.3852   91.5932   15.8911 F       1  UNL1       -0.1659
     45 F          65.6844   93.2592   14.7805 F       1  UNL1       -0.1659
     46 F          66.5701   90.4755   14.0977 F       1  UNL1       -0.1659
@<TRIPOS>BOND
     1    33    34    1
     2    34    31    1
     3    31    32    2
     4    31    30    1
     5    30    29    1
     6    29    28    1
     7    28    26    1
     8    26    19    1
     9    19    18    1
    10    18     1    1
    11     1     2   ar
    12     2     3    2
    13     2     4   ar
    14     4     9    1
    15     9    10   ar
    16    10    11   ar
    17    11    12   ar
    18    12    13   ar
    19    13    16    1
    20    16    17    1
    21    13    14   ar
    22    14    15    1
    23     4     5   ar
    24     5     6   ar
    25     6    35    1
    26    35    36    1
    27    36    37   ar
    28    37    38    1
    29    37    39   ar
    30    39    40   ar
    31    40    41   ar
    32    41    42   ar
    33    42    43    1
    34    43    44    1
    35    43    45    1
    36    43    46    1
    37     6     7   ar
    38     7     8    2
    39    19    20    1
    40    20    21   ar
    41    21    22   ar
    42    22    23   ar
    43    23    24   ar
    44    24    25   ar
    45     7     1   ar
    46    25    20   ar
    47    14     9   ar
    48    42    36   ar
    49    26    27    1
@<TRIPOS>MOLECULE
*****
 46 49 0 0 0
SMALL
GASTEIGER

@<TRIPOS>ATOM
      1 N          63.5834   89.5775   13.2491 N.ar    1  UNL1       -0.2470
      2 C          63.7133   88.2215   13.8772 C.ar    1  UNL1        0.2657
      3 O          64.1034   88.0977   15.3203 O.2     1  UNL1       -0.2668
      4 C          63.4533   86.9895   13.0622 C.ar    1  UNL1        0.0759
      5 C          63.0632   87.1133   11.6191 C.ar    1  UNL1        0.0848
      6 N          62.9332   88.4692   10.9910 N.ar    1  UNL1       -0.2755
      7 C          63.1933   89.7013   11.8061 C.ar    1  UNL1        0.3341
      8 O          63.0633   91.0573   11.1780 O.2     1  UNL1       -0.2462
      9 C          63.5832   85.6334   13.6903 C.ar    1  UNL1        0.0366
     10 C          64.4831   85.4385   14.8745 C.ar    1  UNL1        0.0026
     11 C          64.6131   84.0826   15.5025 C.ar    1  UNL1        0.0033
     12 C          63.8432   82.9215   14.9464 C.ar    1  UNL1        0.0392
     13 C          62.9433   83.1164   13.7623 C.ar    1  UNL1        0.1660
     14 C          62.8134   84.4724   13.1342 C.ar    1  UNL1        0.1739
     15 F          61.9135   84.6673   11.9501 F       1  UNL1       -0.2010
     16 O          62.1735   81.9554   13.2062 O.3     1  UNL1       -0.4692
     17 C          61.2840   81.1466   14.1033 C.3     1  UNL1        0.2526
     18 C          63.8434   90.8096   14.0642 C.3     1  UNL1        0.1337
     19 C          64.8573   91.8141   13.6025 C.3     1  UNL1        0.1000
     20 C          66.1267   92.0091   14.3774 C.ar    1  UNL1       -0.0061
     21 C          67.4477   91.6780   13.7486 C.ar    1  UNL1       -0.0029
     22 C          68.7171   91.8730   14.5235 C.ar    1  UNL1       -0.0003
     23 C          68.6655   92.3990   15.9273 C.ar    1  UNL1       -0.0000
     24 C          67.3446   92.7301   16.5562 C.ar    1  UNL1       -0.0003
     25 C          66.0752   92.5351   15.7812 C.ar    1  UNL1       -0.0029
     26 N          64.6017   92.6236   12.3658 N.3     1  UNL1       -0.2935
     27 H          64.0074   92.0571   11.7606 H       1  UNL1        0.1236
     28 C          65.7523   93.0936   11.5259 C.3     1  UNL1        0.0694
     29 C          66.2935   94.4811   11.7044 C.3     1  UNL1        0.0287
     30 C          66.5927   95.3296   10.5041 C.3     1  UNL1        0.1110
     31 C          67.4339   94.7821    9.3894 C.2     1  UNL1        0.3171
     32 O          67.0505   95.0425    7.9629 O.2     1  UNL1       -0.2501
     33 C          68.7397   92.5390    9.2723 C.3     1  UNL1        0.2556
     34 O          68.6586   93.9741    9.7013 O.3     1  UNL1       -0.4444
     35 C          62.5432   88.5931    9.5479 C.3     1  UNL1        0.1394
     36 C          61.4296   87.7525    8.9972 C.ar    1  UNL1        0.0319
     37 C          61.7397   86.4655    8.2918 C.ar    1  UNL1        0.1379
     38 F          63.1634   86.0191    8.1372 F       1  UNL1       -0.2044
     39 C          60.6261   85.6249    7.7411 C.ar    1  UNL1        0.0294
     40 C          59.2024   86.0713    7.8957 C.ar    1  UNL1        0.0022
     41 C          58.8923   87.3582    8.6011 C.ar    1  UNL1        0.0037
     42 C          60.0059   88.1989    9.1518 C.ar    1  UNL1        0.0714
     43 C          59.6958   89.4858    9.8572 C.3     1  UNL1        0.4184
     44 F          59.3857   90.7728   10.5625 F       1  UNL1       -0.1659
     45 F          59.6408   88.7552   11.1660 F       1  UNL1       -0.1659
     46 F          59.7509   90.2164    8.5483 F       1  UNL1       -0.1659
@<TRIPOS>BOND
     1    33    34    1
     2    34    31    1
     3    31    32    2
     4    31    30    1
     5    30    29    1
     6    29    28    1
     7    28    26    1
     8    26    19    1
     9    19    18    1
    10    18     1    1
    11     1     2   ar
    12     2     3    2
    13     2     4   ar
    14     4     9    1
    15     9    10   ar
    16    10    11   ar
    17    11    12   ar
    18    12    13   ar
    19    13    16    1
    20    16    17    1
    21    13    14   ar
    22    14    15    1
    23     4     5   ar
    24     5     6   ar
    25     6    35    1
    26    35    36    1
    27    36    37   ar
    28    37    38    1
    29    37    39   ar
    30    39    40   ar
    31    40    41   ar
    32    41    42   ar
    33    42    43    1
    34    43    44    1
    35    43    45    1
    36    43    46    1
    37     6     7   ar
    38     7     8    2
    39    19    20    1
    40    20    21   ar
    41    21    22   ar
    42    22    23   ar
    43    23    24   ar
    44    24    25   ar
    45     7     1   ar
    46    25    20   ar
    47    14     9   ar
    48    42    36   ar
    49    26    27    1
@<TRIPOS>MOLECULE
*****
 46 49 0 0 0
SMALL
GASTEIGER

@<TRIPOS>ATOM
      1 N          63.5517   86.1475   13.1592 N.ar    1  UNL1       -0.2470
      2 C          62.7690   85.8837   11.9071 C.ar    1  UNL1        0.2657
      3 O          62.5110   84.4731   11.4671 O.2     1  UNL1       -0.2668
      4 C          62.2443   87.0306   11.0951 C.ar    1  UNL1        0.0759
      5 C          62.5023   88.4411   11.5352 C.ar    1  UNL1        0.0848
      6 N          63.2850   88.7049   12.7873 N.ar    1  UNL1       -0.2755
      7 C          63.8097   87.5581   13.5993 C.ar    1  UNL1        0.3341
      8 O          64.5925   87.8218   14.8515 O.2     1  UNL1       -0.2462
      9 C          61.4616   86.7668    9.8429 C.ar    1  UNL1        0.0366
     10 C          60.0406   87.2348    9.7342 C.ar    1  UNL1        0.0026
     11 C          59.2579   86.9711    8.4821 C.ar    1  UNL1        0.0033
     12 C          59.8961   86.2394    7.3387 C.ar    1  UNL1        0.0392
     13 C          61.3171   85.7714    7.4475 C.ar    1  UNL1        0.1660
     14 C          62.0998   86.0351    8.6996 C.ar    1  UNL1        0.1739
     15 F          63.5208   85.5671    8.8084 F       1  UNL1       -0.2010
     16 O          61.9553   85.0397    6.3042 O.3     1  UNL1       -0.4692
     17 C          61.2809   83.8372    5.7134 C.3     1  UNL1        0.2526
     18 C          64.0765   85.0006   13.9713 C.3     1  UNL1        0.1337
     19 C          63.1233   84.0931   14.6909 C.3     1  UNL1        0.1000
     20 C          62.8533   82.7163   14.1602 C.ar    1  UNL1       -0.0061
     21 C          63.8444   82.0563   13.2481 C.ar    1  UNL1       -0.0029
     22 C          63.5743   80.6796   12.7175 C.ar    1  UNL1       -0.0003
     23 C          62.3131   79.9628   13.0990 C.ar    1  UNL1       -0.0000
     24 C          61.3220   80.6228   14.0111 C.ar    1  UNL1       -0.0003
     25 C          61.5920   81.9995   14.5417 C.ar    1  UNL1       -0.0029
     26 N          62.4402   84.5623   15.9412 N.3     1  UNL1       -0.2935
     27 H          61.5481   84.9660   15.6555 H       1  UNL1        0.1236
     28 C          63.1083   85.5715   16.8273 C.3     1  UNL1        0.0694
     29 C          62.3659   86.8032   17.2539 C.3     1  UNL1        0.0287
     30 C          63.1220   88.0475   17.6142 C.3     1  UNL1        0.1110
     31 C          62.8046   89.3431   16.9280 C.2     1  UNL1        0.3171
     32 O          61.7117   89.4005   15.9023 O.2     1  UNL1       -0.2501
     33 C          63.9999   91.5252   16.1801 C.3     1  UNL1        0.2556
     34 O          63.5801   90.5813   17.2677 O.3     1  UNL1       -0.4444
     35 C          63.5430   90.1155   13.2273 C.3     1  UNL1        0.1394
     36 C          64.3708   91.0284   12.3722 C.ar    1  UNL1        0.0319
     37 C          65.7448   91.4326   12.8180 C.ar    1  UNL1        0.1379
     38 F          66.2911   90.9238   14.1191 F       1  UNL1       -0.2044
     39 C          66.5725   92.3455   11.9628 C.ar    1  UNL1        0.0294
     40 C          66.0263   92.8544   10.6618 C.ar    1  UNL1        0.0022
     41 C          64.6523   92.4503   10.2159 C.ar    1  UNL1        0.0037
     42 C          63.8245   91.5373   11.0711 C.ar    1  UNL1        0.0714
     43 C          62.4505   91.1332   10.6252 C.3     1  UNL1        0.4184
     44 F          61.0766   90.7291   10.1794 F       1  UNL1       -0.1659
     45 F          63.0030   90.7264    9.2914 F       1  UNL1       -0.1659
     46 F          61.8981   91.5399   11.9591 F       1  UNL1       -0.1659
@<TRIPOS>BOND
     1    33    34    1
     2    34    31    1
     3    31    32    2
     4    31    30    1
     5    30    29    1
     6    29    28    1
     7    28    26    1
     8    26    19    1
     9    19    18    1
    10    18     1    1
    11     1     2   ar
    12     2     3    2
    13     2     4   ar
    14     4     9    1
    15     9    10   ar
    16    10    11   ar
    17    11    12   ar
    18    12    13   ar
    19    13    16    1
    20    16    17    1
    21    13    14   ar
    22    14    15    1
    23     4     5   ar
    24     5     6   ar
    25     6    35    1
    26    35    36    1
    27    36    37   ar
    28    37    38    1
    29    37    39   ar
    30    39    40   ar
    31    40    41   ar
    32    41    42   ar
    33    42    43    1
    34    43    44    1
    35    43    45    1
    36    43    46    1
    37     6     7   ar
    38     7     8    2
    39    19    20    1
    40    20    21   ar
    41    21    22   ar
    42    22    23   ar
    43    23    24   ar
    44    24    25   ar
    45     7     1   ar
    46    25    20   ar
    47    14     9   ar
    48    42    36   ar
    49    26    27    1
@<TRIPOS>MOLECULE
*****
 46 49 0 0 0
SMALL
GASTEIGER

@<TRIPOS>ATOM
      1 N          61.1675   88.1001   11.0647 N.ar    1  UNL1       -0.2470
      2 C          61.7857   86.9817   11.8501 C.ar    1  UNL1        0.2657
      3 O          61.1414   85.6272   11.8607 O.2     1  UNL1       -0.2668
      4 C          63.0482   87.2178   12.6248 C.ar    1  UNL1        0.0759
      5 C          63.6925   88.5724   12.6142 C.ar    1  UNL1        0.0848
      6 N          63.0743   89.6908   11.8288 N.ar    1  UNL1       -0.2755
      7 C          61.8118   89.4547   11.0541 C.ar    1  UNL1        0.3341
      8 O          61.1935   90.5731   10.2686 O.2     1  UNL1       -0.2462
      9 C          63.6665   86.0994   13.4103 C.ar    1  UNL1        0.0366
     10 C          64.1420   86.3409   14.8123 C.ar    1  UNL1        0.0026
     11 C          64.7602   85.2226   15.5977 C.ar    1  UNL1        0.0033
     12 C          64.9031   83.8626   14.9812 C.ar    1  UNL1        0.0392
     13 C          64.4276   83.6210   13.5792 C.ar    1  UNL1        0.1660
     14 C          63.8093   84.7395   12.7937 C.ar    1  UNL1        0.1739
     15 F          63.3339   84.4979   11.3917 F       1  UNL1       -0.2010
     16 O          64.5704   82.2611   12.9626 O.3     1  UNL1       -0.4692
     17 C          63.7248   81.1231   13.4523 C.3     1  UNL1        0.2526
     18 C          59.9049   87.8640   10.2899 C.3     1  UNL1        0.1337
     19 C          59.9677   87.6100    8.8129 C.3     1  UNL1        0.1000
     20 C          60.9015   86.5691    8.2700 C.ar    1  UNL1       -0.0061
     21 C          60.4463   85.6512    7.1745 C.ar    1  UNL1       -0.0029
     22 C          61.3801   84.6105    6.6316 C.ar    1  UNL1       -0.0003
     23 C          62.7691   84.4876    7.1842 C.ar    1  UNL1       -0.0000
     24 C          63.2244   85.4055    8.2797 C.ar    1  UNL1       -0.0003
     25 C          62.2906   86.4462    8.8226 C.ar    1  UNL1       -0.0029
     26 N          59.0968   88.3967    7.8789 N.3     1  UNL1       -0.2935
     27 H          58.6198   87.7211    7.2817 H       1  UNL1        0.1236
     28 C          59.7064   89.4230    6.9705 C.3     1  UNL1        0.0694
     29 C          58.8716   90.0748    5.9082 C.3     1  UNL1        0.0287
     30 C          59.4698   91.1312    5.0272 C.3     1  UNL1        0.1110
     31 C          58.5782   92.0813    4.2841 C.2     1  UNL1        0.3171
     32 O          57.2285   92.4312    4.8370 O.2     1  UNL1       -0.2501
     33 C          60.4566   93.1382    2.8335 C.3     1  UNL1        0.2556
     34 O          59.0362   92.6814    2.9880 O.3     1  UNL1       -0.4444
     35 C          63.7186   91.0453   11.8182 C.3     1  UNL1        0.1394
     36 C          64.5427   91.4931   12.9887 C.ar    1  UNL1        0.0319
     37 C          64.1099   91.1538   14.3843 C.ar    1  UNL1        0.1379
     38 F          62.8529   90.3668   14.6093 F       1  UNL1       -0.2044
     39 C          64.9340   91.6016   15.5549 C.ar    1  UNL1        0.0294
     40 C          66.1910   92.3885   15.3299 C.ar    1  UNL1        0.0022
     41 C          66.6239   92.7278   13.9344 C.ar    1  UNL1        0.0037
     42 C          65.7997   92.2801   12.7638 C.ar    1  UNL1        0.0714
     43 C          66.2326   92.6193   11.3683 C.3     1  UNL1        0.4184
     44 F          66.6654   92.9586    9.9728 F       1  UNL1       -0.1659
     45 F          67.3925   91.6773   11.4991 F       1  UNL1       -0.1659
     46 F          65.0726   93.5613   11.2375 F       1  UNL1       -0.1659
@<TRIPOS>BOND
     1    33    34    1
     2    34    31    1
     3    31    32    2
     4    31    30    1
     5    30    29    1
     6    29    28    1
     7    28    26    1
     8    26    19    1
     9    19    18    1
    10    18     1    1
    11     1     2   ar
    12     2     3    2
    13     2     4   ar
    14     4     9    1
    15     9    10   ar
    16    10    11   ar
    17    11    12   ar
    18    12    13   ar
    19    13    16    1
    20    16    17    1
    21    13    14   ar
    22    14    15    1
    23     4     5   ar
    24     5     6   ar
    25     6    35    1
    26    35    36    1
    27    36    37   ar
    28    37    38    1
    29    37    39   ar
    30    39    40   ar
    31    40    41   ar
    32    41    42   ar
    33    42    43    1
    34    43    44    1
    35    43    45    1
    36    43    46    1
    37     6     7   ar
    38     7     8    2
    39    19    20    1
    40    20    21   ar
    41    21    22   ar
    42    22    23   ar
    43    23    24   ar
    44    24    25   ar
    45     7     1   ar
    46    25    20   ar
    47    14     9   ar
    48    42    36   ar
    49    26    27    1
@<TRIPOS>MOLECULE
*****
 46 49 0 0 0
SMALL
GASTEIGER

@<TRIPOS>ATOM
      1 N          61.6995   87.4713   11.7741 N.ar    1  UNL1       -0.2470
      2 C          62.2509   88.7036   12.4277 C.ar    1  UNL1        0.2657
      3 O          61.6293   90.0407   12.1524 O.2     1  UNL1       -0.2668
      4 C          63.4239   88.5989   13.3567 C.ar    1  UNL1        0.0759
      5 C          64.0455   87.2618   13.6321 C.ar    1  UNL1        0.0848
      6 N          63.4941   86.0295   12.9784 N.ar    1  UNL1       -0.2755
      7 C          62.3211   86.1342   12.0495 C.ar    1  UNL1        0.3341
      8 O          61.7696   84.9018   11.3958 O.2     1  UNL1       -0.2462
      9 C          63.9754   89.8313   14.0103 C.ar    1  UNL1        0.0366
     10 C          63.9428   89.9666   15.5039 C.ar    1  UNL1        0.0026
     11 C          64.4942   91.1988   16.1575 C.ar    1  UNL1        0.0033
     12 C          65.0783   92.2959   15.3177 C.ar    1  UNL1        0.0392
     13 C          65.1109   92.1606   13.8242 C.ar    1  UNL1        0.1660
     14 C          64.5595   90.9282   13.1705 C.ar    1  UNL1        0.1739
     15 F          64.5921   90.7930   11.6770 F       1  UNL1       -0.2010
     16 O          65.6950   93.2576   12.9843 O.3     1  UNL1       -0.4692
     17 C          66.9763   93.0298   12.2384 C.3     1  UNL1        0.2526
     18 C          60.5264   87.5760   10.8451 C.3     1  UNL1        0.1337
     19 C          60.7480   87.8221    9.3821 C.3     1  UNL1        0.1000
     20 C          61.1776   86.6962    8.4888 C.ar    1  UNL1       -0.0061
     21 C          62.5896   86.1929    8.5428 C.ar    1  UNL1       -0.0029
     22 C          63.0191   85.0671    7.6495 C.ar    1  UNL1       -0.0003
     23 C          62.0367   84.4447    6.7022 C.ar    1  UNL1       -0.0000
     24 C          60.6248   84.9480    6.6482 C.ar    1  UNL1       -0.0003
     25 C          60.1952   86.0738    7.5415 C.ar    1  UNL1       -0.0029
     26 N          60.5399   89.1940    8.8124 N.3     1  UNL1       -0.2935
     27 H          60.4318   89.8282    9.6039 H       1  UNL1        0.1236
     28 C          59.3880   89.4553    7.8877 C.3     1  UNL1        0.0694
     29 C          59.6341   89.6583    6.4220 C.3     1  UNL1        0.0287
     30 C          58.5218   90.1302    5.5331 C.3     1  UNL1        0.1110
     31 C          58.5737   91.5033    4.9315 C.2     1  UNL1        0.3171
     32 O          57.3591   92.3828    4.9640 O.2     1  UNL1       -0.2501
     33 C          59.7857   93.0653    3.2459 C.3     1  UNL1        0.2556
     34 O          59.8403   91.9968    4.2973 O.3     1  UNL1       -0.4444
     35 C          64.1157   84.6924   13.2538 C.3     1  UNL1        0.1394
     36 C          63.2493   83.4749   13.3834 C.ar    1  UNL1        0.0319
     37 C          62.3288   83.3310   14.5591 C.ar    1  UNL1        0.1379
     38 F          62.2749   84.4047   15.6052 F       1  UNL1       -0.2044
     39 C          61.4624   82.1135   14.6887 C.ar    1  UNL1        0.0294
     40 C          61.5163   81.0398   13.6426 C.ar    1  UNL1        0.0022
     41 C          62.4366   81.1836   12.4670 C.ar    1  UNL1        0.0037
     42 C          63.3031   82.4012   12.3373 C.ar    1  UNL1        0.0714
     43 C          64.2235   82.5450   11.1617 C.3     1  UNL1        0.4184
     44 F          65.1439   82.6888    9.9860 F       1  UNL1       -0.1659
     45 F          63.0579   82.9195   10.2951 F       1  UNL1       -0.1659
     46 F          65.3891   82.1704   12.0283 F       1  UNL1       -0.1659
@<TRIPOS>BOND
     1    33    34    1
     2    34    31    1
     3    31    32    2
     4    31    30    1
     5    30    29    1
     6    29    28    1
     7    28    26    1
     8    26    19    1
     9    19    18    1
    10    18     1    1
    11     1     2   ar
    12     2     3    2
    13     2     4   ar
    14     4     9    1
    15     9    10   ar
    16    10    11   ar
    17    11    12   ar
    18    12    13   ar
    19    13    16    1
    20    16    17    1
    21    13    14   ar
    22    14    15    1
    23     4     5   ar
    24     5     6   ar
    25     6    35    1
    26    35    36    1
    27    36    37   ar
    28    37    38    1
    29    37    39   ar
    30    39    40   ar
    31    40    41   ar
    32    41    42   ar
    33    42    43    1
    34    43    44    1
    35    43    45    1
    36    43    46    1
    37     6     7   ar
    38     7     8    2
    39    19    20    1
    40    20    21   ar
    41    21    22   ar
    42    22    23   ar
    43    23    24   ar
    44    24    25   ar
    45     7     1   ar
    46    25    20   ar
    47    14     9   ar
    48    42    36   ar
    49    26    27    1
