@<TRIPOS>MOLECULE
*****
 22 23 0 0 0
SMALL
GASTEIGER

@<TRIPOS>ATOM
      1 C          59.2755   92.2639    4.1618 C.2     1  UNL1        0.0428
      2 C          60.4343   92.5803    3.2634 C.2     1  UNL1       -0.0145
      3 C          61.7817   91.9218    3.2974 C.3     1  UNL1        0.0459
      4 C          62.6293   92.5453    2.2283 C.3     1  UNL1        0.0997
      5 N          61.8058   93.5889    1.5336 N.am    1  UNL1       -0.2599
      6 C          62.2593   94.4583    0.3985 C.2     1  UNL1        0.3074
      7 O          63.6528   94.3228   -0.1396 O.2     1  UNL1       -0.2523
      8 N          61.3191   95.4632   -0.1985 N.am    1  UNL1       -0.2639
      9 C          61.7726   96.3326   -1.3336 C.3     1  UNL1        0.1164
     10 C          60.4492   93.6105    2.1734 C.3     1  UNL1        0.1181
     11 C          59.9256   95.5986    0.3397 C.3     1  UNL1        0.0770
     12 C          58.8163   94.7670   -0.2329 C.3     1  UNL1        0.0216
     13 C          59.6413   96.5658    1.4505 C.3     1  UNL1        0.0216
     14 C          59.5431   90.1398    6.2635 C.1     1  UNL1       -0.0405
     15 C          59.4093   91.2018    5.2127 C.1     1  UNL1       -0.0582
     16 C          61.2035   88.6305   10.9502 C.3     1  UNL1        0.0521
     17 C          60.5071   88.3231    9.6576 C.ar    1  UNL1        0.0600
     18 C          59.9446   86.9538    9.4159 C.ar    1  UNL1        0.0148
     19 C          59.2482   86.6465    8.1234 C.ar    1  UNL1        0.0034
     20 C          59.1143   87.7085    7.0726 C.ar    1  UNL1        0.0276
     21 C          59.6769   89.0778    7.3143 C.ar    1  UNL1        0.1224
     22 N          60.3733   89.3851    8.6068 N.ar    1  UNL1       -0.2414
@<TRIPOS>BOND
     1    16    17    1
     2    17    18   ar
     3    18    19   ar
     4    19    20   ar
     5    20    21   ar
     6    21    14    1
     7    14    15    3
     8    15     1    1
     9     1     2    2
    10     2     3    1
    11     3     4    1
    12     4     5    1
    13     5     6   am
    14     6     7    2
    15     6     8   am
    16     8     9    1
    17     8    11    1
    18    11    12    1
    19    11    13    1
    20     5    10    1
    21    21    22   ar
    22    22    17   ar
    23    10     2    1
@<TRIPOS>MOLECULE
*****
 22 23 0 0 0
SMALL
GASTEIGER

@<TRIPOS>ATOM
      1 C          63.6151   89.3194   12.6416 C.2     1  UNL1        0.0428
      2 C          64.2691   90.6428   12.3754 C.2     1  UNL1       -0.0145
      3 C          64.1818   91.4290   11.1009 C.3     1  UNL1        0.0459
      4 C          64.9839   92.6845   11.2749 C.3     1  UNL1        0.0997
      5 N          65.5670   92.6744   12.6569 N.am    1  UNL1       -0.2599
      6 C          66.4387   93.7390   13.2539 C.2     1  UNL1        0.3074
      7 O          66.7990   94.9522   12.4486 O.2     1  UNL1       -0.2523
      8 N          66.9502   93.5906   14.6562 N.am    1  UNL1       -0.2639
      9 C          67.8219   94.6552   15.2532 C.3     1  UNL1        0.1164
     10 C          65.1252   91.4125   13.3371 C.3     1  UNL1        0.1181
     11 C          66.5899   92.3774   15.4614 C.3     1  UNL1        0.0770
     12 C          67.4293   91.1378   15.3666 C.3     1  UNL1        0.0216
     13 C          65.3902   92.4038   16.3615 C.3     1  UNL1        0.0216
     14 C          61.9513   88.0136   10.5139 C.1     1  UNL1       -0.0405
     15 C          62.7832   88.6665   11.5777 C.1     1  UNL1       -0.0582
     16 C          61.5136   84.6589    6.5700 C.3     1  UNL1        0.0521
     17 C          60.9006   85.6834    7.4781 C.ar    1  UNL1        0.0600
     18 C          59.4557   86.0549    7.3225 C.ar    1  UNL1        0.0148
     19 C          58.8427   87.0794    8.2306 C.ar    1  UNL1        0.0034
     20 C          59.6746   87.7323    9.2944 C.ar    1  UNL1        0.0276
     21 C          61.1194   87.3607    9.4501 C.ar    1  UNL1        0.1224
     22 N          61.7324   86.3362    8.5420 N.ar    1  UNL1       -0.2414
@<TRIPOS>BOND
     1    16    17    1
     2    17    18   ar
     3    18    19   ar
     4    19    20   ar
     5    20    21   ar
     6    21    14    1
     7    14    15    3
     8    15     1    1
     9     1     2    2
    10     2     3    1
    11     3     4    1
    12     4     5    1
    13     5     6   am
    14     6     7    2
    15     6     8   am
    16     8     9    1
    17     8    11    1
    18    11    12    1
    19    11    13    1
    20     5    10    1
    21    21    22   ar
    22    22    17   ar
    23    10     2    1
@<TRIPOS>MOLECULE
*****
 22 23 0 0 0
SMALL
GASTEIGER

@<TRIPOS>ATOM
      1 C          61.0409   86.2723    8.5491 C.2     1  UNL1        0.0428
      2 C          61.6926   86.5515    9.8710 C.2     1  UNL1       -0.0145
      3 C          61.8012   87.8923   10.5348 C.3     1  UNL1        0.0459
      4 C          62.5258   87.7083   11.8353 C.3     1  UNL1        0.0997
      5 N          62.8650   86.2538   11.9752 N.am    1  UNL1       -0.2599
      6 C          63.5915   85.6249   13.1269 C.2     1  UNL1        0.3074
      7 O          64.0489   86.4715   14.2775 O.2     1  UNL1       -0.2523
      8 N          63.8607   84.1492   13.1279 N.am    1  UNL1       -0.2639
      9 C          64.5873   83.5201   14.2796 C.3     1  UNL1        0.1164
     10 C          62.3500   85.5389   10.7613 C.3     1  UNL1        0.1181
     11 C          63.4034   83.3026   11.9772 C.3     1  UNL1        0.0770
     12 C          64.1837   83.2933   10.6962 C.3     1  UNL1        0.0216
     13 C          62.1657   82.4653   12.1076 C.3     1  UNL1        0.0216
     14 C          59.8018   88.5123    6.9849 C.1     1  UNL1       -0.0405
     15 C          60.4214   87.3923    7.7670 C.1     1  UNL1       -0.0582
     16 C          60.2993   92.6120    3.8313 C.3     1  UNL1        0.0521
     17 C          59.4310   91.6822    4.6259 C.ar    1  UNL1        0.0600
     18 C          57.9432   91.8724    4.6385 C.ar    1  UNL1        0.0148
     19 C          57.0749   90.9426    5.4331 C.ar    1  UNL1        0.0034
     20 C          57.6944   89.8226    6.2153 C.ar    1  UNL1        0.0276
     21 C          59.1822   89.6324    6.2027 C.ar    1  UNL1        0.1224
     22 N          60.0505   90.5622    5.4081 N.ar    1  UNL1       -0.2414
@<TRIPOS>BOND
     1    16    17    1
     2    17    18   ar
     3    18    19   ar
     4    19    20   ar
     5    20    21   ar
     6    21    14    1
     7    14    15    3
     8    15     1    1
     9     1     2    2
    10     2     3    1
    11     3     4    1
    12     4     5    1
    13     5     6   am
    14     6     7    2
    15     6     8   am
    16     8     9    1
    17     8    11    1
    18    11    12    1
    19    11    13    1
    20     5    10    1
    21    21    22   ar
    22    22    17   ar
    23    10     2    1
@<TRIPOS>MOLECULE
*****
 22 23 0 0 0
SMALL
GASTEIGER

@<TRIPOS>ATOM
      1 C          64.5478   92.5528   13.2119 C.2     1  UNL1        0.0428
      2 C          65.4990   92.6502   12.0562 C.2     1  UNL1       -0.0145
      3 C          66.3029   91.5232   11.4785 C.3     1  UNL1        0.0459
      4 C          67.1141   92.0682   10.3405 C.3     1  UNL1        0.0997
      5 N          66.8115   93.5320   10.2149 N.am    1  UNL1       -0.2599
      6 C          67.4032   94.4711    9.2061 C.2     1  UNL1        0.3074
      7 O          68.3953   93.9648    8.2014 O.2     1  UNL1       -0.2523
      8 N          67.0029   95.9167    9.2019 N.am    1  UNL1       -0.2639
      9 C          67.5946   96.8560    8.1931 C.3     1  UNL1        0.1164
     10 C          65.8134   93.8917   11.2752 C.3     1  UNL1        0.1181
     11 C          66.0109   96.4231   10.2066 C.3     1  UNL1        0.0770
     12 C          64.5634   96.5492    9.8336 C.3     1  UNL1        0.0216
     13 C          66.4662   96.8034   11.5843 C.3     1  UNL1        0.0216
     14 C          64.1207   89.9200   14.5853 C.1     1  UNL1       -0.0405
     15 C          64.3342   91.2364   13.8986 C.1     1  UNL1       -0.0582
     16 C          64.6612   84.7529   14.6776 C.3     1  UNL1        0.0521
     17 C          64.1774   86.0200   15.3181 C.ar    1  UNL1        0.0600
     18 C          63.4800   85.9708   16.6452 C.ar    1  UNL1        0.0148
     19 C          62.9962   87.2380   17.2857 C.ar    1  UNL1        0.0034
     20 C          63.2098   88.5543   16.5991 C.ar    1  UNL1        0.0276
     21 C          63.9071   88.6036   15.2720 C.ar    1  UNL1        0.1224
     22 N          64.3909   87.3364   14.6315 N.ar    1  UNL1       -0.2414
@<TRIPOS>BOND
     1    16    17    1
     2    17    18   ar
     3    18    19   ar
     4    19    20   ar
     5    20    21   ar
     6    21    14    1
     7    14    15    3
     8    15     1    1
     9     1     2    2
    10     2     3    1
    11     3     4    1
    12     4     5    1
    13     5     6   am
    14     6     7    2
    15     6     8   am
    16     8     9    1
    17     8    11    1
    18    11    12    1
    19    11    13    1
    20     5    10    1
    21    21    22   ar
    22    22    17   ar
    23    10     2    1
@<TRIPOS>MOLECULE
*****
 22 23 0 0 0
SMALL
GASTEIGER

@<TRIPOS>ATOM
      1 C          72.6151   76.2396   11.8870 C.2     1  UNL1        0.0428
      2 C          71.7897   76.0146   13.1192 C.2     1  UNL1       -0.0145
      3 C          70.8191   76.9878   13.7201 C.3     1  UNL1        0.0459
      4 C          70.2196   76.3516   14.9391 C.3     1  UNL1        0.0997
      5 N          70.8196   74.9853   15.0915 N.am    1  UNL1       -0.2599
      6 C          70.5045   74.0003   16.1779 C.2     1  UNL1        0.3074
      7 O          69.5065   74.3505   17.2415 O.2     1  UNL1       -0.2523
      8 N          71.1875   72.6650   16.2007 N.am    1  UNL1       -0.2639
      9 C          70.8724   71.6799   17.2872 C.3     1  UNL1        0.1164
     10 C          71.7899   74.7770   13.9668 C.3     1  UNL1        0.1181
     11 C          72.1855   72.3147   15.1371 C.3     1  UNL1        0.0770
     12 C          71.7478   71.5590   13.9176 C.3     1  UNL1        0.0216
     13 C          73.6212   72.7202   15.2931 C.3     1  UNL1        0.0216
     14 C          72.4011   78.8311   10.3909 C.1     1  UNL1       -0.0405
     15 C          72.5081   77.5354   11.1389 C.1     1  UNL1       -0.0582
     16 C          71.6406   81.4108    5.9449 C.3     1  UNL1        0.0521
     17 C          71.9139   81.4167    7.4198 C.ar    1  UNL1        0.0600
     18 C          72.0803   82.7182    8.1466 C.ar    1  UNL1        0.0148
     19 C          72.3536   82.7241    9.6214 C.ar    1  UNL1        0.0034
     20 C          72.4606   81.4284   10.3695 C.ar    1  UNL1        0.0276
     21 C          72.2942   80.1269    9.6428 C.ar    1  UNL1        0.1224
     22 N          72.0208   80.1210    8.1679 N.ar    1  UNL1       -0.2414
@<TRIPOS>BOND
     1    16    17    1
     2    17    18   ar
     3    18    19   ar
     4    19    20   ar
     5    20    21   ar
     6    21    14    1
     7    14    15    3
     8    15     1    1
     9     1     2    2
    10     2     3    1
    11     3     4    1
    12     4     5    1
    13     5     6   am
    14     6     7    2
    15     6     8   am
    16     8     9    1
    17     8    11    1
    18    11    12    1
    19    11    13    1
    20     5    10    1
    21    21    22   ar
    22    22    17   ar
    23    10     2    1
@<TRIPOS>MOLECULE
*****
 22 23 0 0 0
SMALL
GASTEIGER

@<TRIPOS>ATOM
      1 C          61.0008   87.6509   10.0914 C.2     1  UNL1        0.0428
      2 C          61.8535   86.4390    9.8585 C.2     1  UNL1       -0.0145
      3 C          62.2957   85.9153    8.5242 C.3     1  UNL1        0.0459
      4 C          63.1292   84.6906    8.7601 C.3     1  UNL1        0.0997
      5 N          63.2020   84.4575   10.2401 N.am    1  UNL1       -0.2599
      6 C          63.9347   83.3400   10.9215 C.2     1  UNL1        0.3074
      7 O          64.6840   82.3277   10.1067 O.2     1  UNL1       -0.2523
      8 N          63.9180   83.2348   12.4177 N.am    1  UNL1       -0.2639
      9 C          64.6506   82.1173   13.0992 C.3     1  UNL1        0.1164
     10 C          62.4136   85.5380   10.9189 C.3     1  UNL1        0.1181
     11 C          63.1687   84.2470   13.2324 C.3     1  UNL1        0.0770
     12 C          61.8504   83.8854   13.8501 C.3     1  UNL1        0.0216
     13 C          63.7376   85.6209   13.4295 C.3     1  UNL1        0.0216
     14 C          60.0220   89.2666    7.7608 C.1     1  UNL1       -0.0405
     15 C          60.5114   88.4588    8.9261 C.1     1  UNL1       -0.0582
     16 C          56.0983   91.2484    4.9901 C.3     1  UNL1        0.0521
     17 C          57.5707   91.0654    5.2102 C.ar    1  UNL1        0.0600
     18 C          58.5537   91.6902    4.2651 C.ar    1  UNL1        0.0148
     19 C          60.0261   91.5072    4.4852 C.ar    1  UNL1        0.0034
     20 C          60.5155   90.6993    5.6504 C.ar    1  UNL1        0.0276
     21 C          59.5326   90.0745    6.5955 C.ar    1  UNL1        0.1224
     22 N          58.0601   90.2575    6.3754 N.ar    1  UNL1       -0.2414
@<TRIPOS>BOND
     1    16    17    1
     2    17    18   ar
     3    18    19   ar
     4    19    20   ar
     5    20    21   ar
     6    21    14    1
     7    14    15    3
     8    15     1    1
     9     1     2    2
    10     2     3    1
    11     3     4    1
    12     4     5    1
    13     5     6   am
    14     6     7    2
    15     6     8   am
    16     8     9    1
    17     8    11    1
    18    11    12    1
    19    11    13    1
    20     5    10    1
    21    21    22   ar
    22    22    17   ar
    23    10     2    1
@<TRIPOS>MOLECULE
*****
 22 23 0 0 0
SMALL
GASTEIGER

@<TRIPOS>ATOM
      1 C          60.8456   87.6376   10.0155 C.2     1  UNL1        0.0428
      2 C          61.7506   86.4658    9.7749 C.2     1  UNL1       -0.0145
      3 C          62.2429   85.9915    8.4397 C.3     1  UNL1        0.0459
      4 C          63.1188   84.7952    8.6669 C.3     1  UNL1        0.0997
      5 N          63.1679   84.5301   10.1425 N.am    1  UNL1       -0.2599
      6 C          63.9289   83.4264   10.8151 C.2     1  UNL1        0.3074
      7 O          64.7358   82.4638    9.9952 O.2     1  UNL1       -0.2523
      8 N          63.8831   83.2853   12.3078 N.am    1  UNL1       -0.2639
      9 C          64.6442   82.1816   12.9805 C.3     1  UNL1        0.1164
     10 C          62.3223   85.5627   10.8273 C.3     1  UNL1        0.1181
     11 C          63.0763   84.2479   13.1277 C.3     1  UNL1        0.0770
     12 C          63.5964   85.6306   13.3882 C.3     1  UNL1        0.0216
     13 C          61.7495   83.8279   13.6872 C.3     1  UNL1        0.0216
     14 C          59.8556   89.2684    7.7002 C.1     1  UNL1       -0.0405
     15 C          60.3506   88.4530    8.8578 C.1     1  UNL1       -0.0582
     16 C          60.8223   92.2634    3.5655 C.3     1  UNL1        0.0521
     17 C          59.8440   91.5813    4.4752 C.ar    1  UNL1        0.0600
     18 C          58.3707   91.7146    4.2273 C.ar    1  UNL1        0.0148
     19 C          57.3923   91.0325    5.1370 C.ar    1  UNL1        0.0034
     20 C          57.8872   90.2171    6.2946 C.ar    1  UNL1        0.0276
     21 C          59.3606   90.0838    6.5425 C.ar    1  UNL1        0.1224
     22 N          60.3389   90.7659    5.6328 N.ar    1  UNL1       -0.2414
@<TRIPOS>BOND
     1    16    17    1
     2    17    18   ar
     3    18    19   ar
     4    19    20   ar
     5    20    21   ar
     6    21    14    1
     7    14    15    3
     8    15     1    1
     9     1     2    2
    10     2     3    1
    11     3     4    1
    12     4     5    1
    13     5     6   am
    14     6     7    2
    15     6     8   am
    16     8     9    1
    17     8    11    1
    18    11    12    1
    19    11    13    1
    20     5    10    1
    21    21    22   ar
    22    22    17   ar
    23    10     2    1
@<TRIPOS>MOLECULE
*****
 22 23 0 0 0
SMALL
GASTEIGER

@<TRIPOS>ATOM
      1 C          58.9640   92.8966   -1.6790 C.2     1  UNL1        0.0428
      2 C          60.2971   93.5175   -1.9744 C.2     1  UNL1       -0.0145
      3 C          60.8839   93.7392   -3.3370 C.3     1  UNL1        0.0459
      4 C          62.2270   94.3844   -3.1638 C.3     1  UNL1        0.0997
      5 N          62.4702   94.5615   -1.6943 N.am    1  UNL1       -0.2599
      6 C          63.6916   95.1678   -1.0696 C.2     1  UNL1        0.3074
      7 O          64.8106   95.6630   -1.9372 O.2     1  UNL1       -0.2523
      8 N          63.7942   95.2790    0.4228 N.am    1  UNL1       -0.2639
      9 C          65.0156   95.8853    1.0476 C.3     1  UNL1        0.1164
     10 C          61.2774   94.0257   -0.9592 C.3     1  UNL1        0.1181
     11 C          62.6752   94.7838    1.2904 C.3     1  UNL1        0.0770
     12 C          61.5345   95.6945    1.6357 C.3     1  UNL1        0.0216
     13 C          62.6970   93.3778    1.8126 C.3     1  UNL1        0.0216
     14 C          57.2096   91.9692   -3.9289 C.1     1  UNL1       -0.0405
     15 C          58.0868   92.4329   -2.8040 C.1     1  UNL1       -0.0582
     16 C          53.3050   89.0134   -5.6661 C.3     1  UNL1        0.0521
     17 C          54.3801   90.0275   -5.9224 C.ar    1  UNL1        0.0600
     18 C          54.5780   90.5779   -7.3037 C.ar    1  UNL1        0.0148
     19 C          55.6531   91.5920   -7.5600 C.ar    1  UNL1        0.0034
     20 C          56.5303   92.0558   -6.4351 C.ar    1  UNL1        0.0276
     21 C          56.3324   91.5054   -5.0539 C.ar    1  UNL1        0.1224
     22 N          55.2573   90.4913   -4.7975 N.ar    1  UNL1       -0.2414
@<TRIPOS>BOND
     1    16    17    1
     2    17    18   ar
     3    18    19   ar
     4    19    20   ar
     5    20    21   ar
     6    21    14    1
     7    14    15    3
     8    15     1    1
     9     1     2    2
    10     2     3    1
    11     3     4    1
    12     4     5    1
    13     5     6   am
    14     6     7    2
    15     6     8   am
    16     8     9    1
    17     8    11    1
    18    11    12    1
    19    11    13    1
    20     5    10    1
    21    21    22   ar
    22    22    17   ar
    23    10     2    1
@<TRIPOS>MOLECULE
*****
 22 23 0 0 0
SMALL
GASTEIGER

@<TRIPOS>ATOM
      1 C          72.2611   76.6680   14.2391 C.2     1  UNL1        0.0428
      2 C          72.0029   75.2199   13.9450 C.2     1  UNL1       -0.0145
      3 C          71.7589   74.6254   12.5896 C.3     1  UNL1        0.0459
      4 C          71.5486   73.1502   12.7616 C.3     1  UNL1        0.0997
      5 N          71.6626   72.8330   14.2232 N.am    1  UNL1       -0.2599
      6 C          71.5207   71.4751   14.8443 C.2     1  UNL1        0.3074
      7 O          71.2385   70.2813   13.9811 O.2     1  UNL1       -0.2523
      8 N          71.6611   71.3110   16.3287 N.am    1  UNL1       -0.2639
      9 C          71.5193   69.9530   16.9499 C.3     1  UNL1        0.1164
     10 C          71.9434   74.1122   14.9546 C.3     1  UNL1        0.1181
     11 C          71.9434   72.5048   17.1919 C.3     1  UNL1        0.0770
     12 C          70.8087   73.2919   17.7776 C.3     1  UNL1        0.0216
     13 C          73.3603   72.9114   17.4694 C.3     1  UNL1        0.0216
     14 C          72.3219   78.6654   12.0016 C.1     1  UNL1       -0.0405
     15 C          72.2915   77.6667   13.1203 C.1     1  UNL1       -0.0582
     16 C          72.1034   79.7413    6.9227 C.3     1  UNL1        0.0521
     17 C          72.2430   80.2021    8.3434 C.ar    1  UNL1        0.0600
     18 C          72.4129   81.6615    8.6452 C.ar    1  UNL1        0.0148
     19 C          72.5526   82.1223   10.0659 C.ar    1  UNL1        0.0034
     20 C          72.5222   81.1236   11.1847 C.ar    1  UNL1        0.0276
     21 C          72.3523   79.6642   10.8828 C.ar    1  UNL1        0.1224
     22 N          72.2126   79.2034    9.4621 N.ar    1  UNL1       -0.2414
@<TRIPOS>BOND
     1    16    17    1
     2    17    18   ar
     3    18    19   ar
     4    19    20   ar
     5    20    21   ar
     6    21    14    1
     7    14    15    3
     8    15     1    1
     9     1     2    2
    10     2     3    1
    11     3     4    1
    12     4     5    1
    13     5     6   am
    14     6     7    2
    15     6     8   am
    16     8     9    1
    17     8    11    1
    18    11    12    1
    19    11    13    1
    20     5    10    1
    21    21    22   ar
    22    22    17   ar
    23    10     2    1
