@<TRIPOS>MOLECULE
*****
 45 49 0 0 0
SMALL
GASTEIGER

@<TRIPOS>ATOM
      1 C          64.2780   88.2017   14.3522 C.ar    1  UNL1        0.2006
      2 N          63.4506   88.0048   13.1167 N.ar    1  UNL1       -0.1999
      3 C          63.0820   86.6199   12.6736 C.ar    1  UNL1        0.1391
      4 C          63.5409   85.4320   13.4661 C.ar    1  UNL1        0.0827
      5 C          63.3347   83.9584   13.2762 C.ar    1  UNL1        0.0866
      6 C          62.5639   83.3121   12.1634 C.3     1  UNL1        0.0542
      7 N          64.0347   83.2445   14.3944 N.ar    1  UNL1       -0.1508
      8 N          64.6735   84.2769   15.2754 N.ar    1  UNL1       -0.1305
      9 C          64.3682   85.6288   14.7017 C.ar    1  UNL1        0.1679
     10 N          64.7368   87.0137   15.1448 N.ar    1  UNL1       -0.3104
     11 H          65.2798   87.1429   15.9557 H       1  UNL1        0.1701
     12 N          64.6466   89.5866   14.7954 N.pl3   1  UNL1       -0.2816
     13 H          64.6419   89.8146   15.7531 H       1  UNL1        0.1551
     14 C          63.7688   91.9717   10.2631 C.3     1  UNL1        0.0307
     15 C          64.5834   91.8166   11.5130 C.ar    1  UNL1       -0.0244
     16 C          64.2077   90.7792   12.5292 C.ar    1  UNL1        0.0132
     17 C          65.0223   90.6240   13.7792 C.ar    1  UNL1        0.0845
     18 C          66.2126   91.5063   14.0130 C.ar    1  UNL1        0.1513
     19 C          66.5883   92.5438   12.9968 C.ar    1  UNL1        0.0336
     20 C          65.7737   92.6989   11.7469 C.ar    1  UNL1       -0.0233
     21 C          66.1494   93.7363   10.7307 C.3     1  UNL1        0.0249
     22 C          65.5431   95.1067   10.7984 C.3     1  UNL1        0.0217
     23 C          65.9188   96.1441    9.7823 C.3     1  UNL1        0.0725
     24 N          66.9008   95.8112    8.6984 N.3     1  UNL1       -0.2715
     25 C          67.2766   96.8486    7.6822 C.3     1  UNL1        0.0896
     26 C          67.5072   94.4409    8.6307 C.3     1  UNL1        0.0725
     27 C          67.1315   93.4034    9.6469 C.3     1  UNL1        0.0217
     28 O          67.0272   91.3512   15.2629 O.3     1  UNL1       -0.4779
     29 C          67.9363   92.4583   15.7079 C.3     1  UNL1        0.1662
     30 C          67.5513   93.8878   15.4663 C.3     1  UNL1        0.0472
     31 C          69.2304   92.1358   16.3944 C.3     1  UNL1        0.0472
     32 N          62.2546   86.4231   11.4380 N.pl3   1  UNL1       -0.2967
     33 H          62.1985   85.5337   11.0196 H       1  UNL1        0.1536
     34 C          61.5128   87.5815   10.8397 C.ar    1  UNL1        0.0667
     35 C          61.1289   88.7502   11.6981 C.ar    1  UNL1        0.0159
     36 C          60.3871   89.9085   11.0998 C.ar    1  UNL1        0.0014
     37 C          60.0292   89.8981    9.6431 C.ar    1  UNL1        0.0014
     38 C          60.4131   88.7294    8.7848 C.ar    1  UNL1        0.0196
     39 C          61.1549   87.5711    9.3831 C.ar    1  UNL1        0.1189
     40 S          61.5388   86.4024    8.5248 S.O2    1  UNL1        0.0082
     41 O          62.9888   86.7030    8.7639 O.2     1  UNL1       -0.1686
     42 O          60.0888   86.1018    8.2856 O.2     1  UNL1       -0.1686
     43 C          61.9227   85.2337    7.6664 C.3     1  UNL1        0.1340
     44 C          61.1015   84.8873    6.4600 C.3     1  UNL1        0.0257
     45 C          63.1279   84.4113    8.0146 C.3     1  UNL1        0.0257
@<TRIPOS>BOND
     1    14    15    1
     2    15    16   ar
     3    16    17   ar
     4    17    12    1
     5    12     1    1
     6     1     2   ar
     7     2     3   ar
     8     3    32    1
     9    32    34    1
    10    34    35   ar
    11    35    36   ar
    12    36    37   ar
    13    37    38   ar
    14    38    39   ar
    15    39    40    1
    16    40    41    2
    17    40    42    2
    18    40    43    1
    19    43    44    1
    20    43    45    1
    21     3     4   ar
    22     4     5   ar
    23     5     6    1
    24     5     7   ar
    25     7     8   ar
    26     8     9   ar
    27     9    10   ar
    28    17    18   ar
    29    18    28    1
    30    28    29    1
    31    29    30    1
    32    29    31    1
    33    18    19   ar
    34    19    20   ar
    35    20    21    1
    36    21    22    1
    37    22    23    1
    38    23    24    1
    39    24    25    1
    40    24    26    1
    41    26    27    1
    42    20    15   ar
    43    27    21    1
    44    10     1   ar
    45    39    34   ar
    46     9     4    1
    47    12    13    1
    48    32    33    1
    49    10    11    1
@<TRIPOS>MOLECULE
*****
 45 49 0 0 0
SMALL
GASTEIGER

@<TRIPOS>ATOM
      1 C          64.0203   90.6999   12.7255 C.ar    1  UNL1        0.2006
      2 N          65.2082   91.4286   12.1708 N.ar    1  UNL1       -0.1999
      3 C          66.0857   92.2352   13.0816 C.ar    1  UNL1        0.1391
      4 C          65.7753   92.3129   14.5470 C.ar    1  UNL1        0.0827
      5 C          66.4537   93.0237   15.6804 C.ar    1  UNL1        0.0866
      6 C          67.6847   93.8746   15.5768 C.3     1  UNL1        0.0542
      7 N          65.6851   92.7342   16.9355 N.ar    1  UNL1       -0.1508
      8 N          64.5316   91.8445   16.5779 N.ar    1  UNL1       -0.1305
      9 C          64.5873   91.5841   15.1017 C.ar    1  UNL1        0.1679
     10 N          63.7098   90.7776   14.1909 N.ar    1  UNL1       -0.3104
     11 H          62.9301   90.2993   14.5550 H       1  UNL1        0.1701
     12 N          63.1427   89.8933   11.8147 N.pl3   1  UNL1       -0.2816
     13 H          62.6263   90.3403   11.1057 H       1  UNL1        0.1551
     14 C          64.1241   85.6126   14.5920 C.3     1  UNL1        0.0307
     15 C          63.5428   86.2653   13.3730 C.ar    1  UNL1       -0.0244
     16 C          63.6334   87.7529   13.2034 C.ar    1  UNL1        0.0132
     17 C          63.0521   88.4057   11.9843 C.ar    1  UNL1        0.0845
     18 C          62.3801   87.5708   10.9349 C.ar    1  UNL1        0.1513
     19 C          62.2894   86.0831   11.1045 C.ar    1  UNL1        0.0336
     20 C          62.8707   85.4304   12.3235 C.ar    1  UNL1       -0.0233
     21 C          62.7801   83.9428   12.4931 C.3     1  UNL1        0.0249
     22 C          63.2139   83.0334   11.3819 C.3     1  UNL1        0.0217
     23 C          63.1233   81.5458   11.5515 C.3     1  UNL1        0.0725
     24 N          62.5988   80.9676   12.8324 N.3     1  UNL1       -0.2715
     25 C          62.5081   79.4799   13.0021 C.3     1  UNL1        0.0896
     26 C          62.1650   81.8770   13.9436 C.3     1  UNL1        0.0725
     27 C          62.2556   83.3646   13.7740 C.3     1  UNL1        0.0217
     28 O          61.7987   88.2234    9.7159 O.3     1  UNL1       -0.4779
     29 C          60.3340   88.5422    9.6622 C.3     1  UNL1        0.1662
     30 C          59.4064   87.6752    8.8636 C.3     1  UNL1        0.0472
     31 C          59.7968   89.7281   10.4073 C.3     1  UNL1        0.0472
     32 N          67.2737   92.9640   12.5268 N.pl3   1  UNL1       -0.2967
     33 H          67.8036   93.5559   13.1082 H       1  UNL1        0.1536
     34 C          67.6542   92.7908   11.0863 C.ar    1  UNL1        0.0667
     35 C          68.4277   91.5802   10.6551 C.ar    1  UNL1        0.0159
     36 C          68.8082   91.4071    9.2146 C.ar    1  UNL1        0.0014
     37 C          68.4151   92.4447    8.2051 C.ar    1  UNL1        0.0014
     38 C          67.6416   93.6554    8.6363 C.ar    1  UNL1        0.0196
     39 C          67.2611   93.8284   10.0769 C.ar    1  UNL1        0.1189
     40 S          66.4876   95.0391   10.5080 S.O2    1  UNL1        0.0082
     41 O          65.2619   94.1928   10.6855 O.2     1  UNL1       -0.1686
     42 O          67.7132   95.8854   10.3306 O.2     1  UNL1       -0.1686
     43 C          65.7140   96.2497   10.9392 C.3     1  UNL1        0.1340
     44 C          64.6938   96.8542   10.0208 C.3     1  UNL1        0.0257
     45 C          65.9608   96.8559   12.2889 C.3     1  UNL1        0.0257
@<TRIPOS>BOND
     1    14    15    1
     2    15    16   ar
     3    16    17   ar
     4    17    12    1
     5    12     1    1
     6     1     2   ar
     7     2     3   ar
     8     3    32    1
     9    32    34    1
    10    34    35   ar
    11    35    36   ar
    12    36    37   ar
    13    37    38   ar
    14    38    39   ar
    15    39    40    1
    16    40    41    2
    17    40    42    2
    18    40    43    1
    19    43    44    1
    20    43    45    1
    21     3     4   ar
    22     4     5   ar
    23     5     6    1
    24     5     7   ar
    25     7     8   ar
    26     8     9   ar
    27     9    10   ar
    28    17    18   ar
    29    18    28    1
    30    28    29    1
    31    29    30    1
    32    29    31    1
    33    18    19   ar
    34    19    20   ar
    35    20    21    1
    36    21    22    1
    37    22    23    1
    38    23    24    1
    39    24    25    1
    40    24    26    1
    41    26    27    1
    42    20    15   ar
    43    27    21    1
    44    10     1   ar
    45    39    34   ar
    46     9     4    1
    47    12    13    1
    48    32    33    1
    49    10    11    1
@<TRIPOS>MOLECULE
*****
 45 49 0 0 0
SMALL
GASTEIGER

@<TRIPOS>ATOM
      1 C          63.9163   90.8138   12.8202 C.ar    1  UNL1        0.2006
      2 N          65.0462   91.6101   12.2381 N.ar    1  UNL1       -0.1999
      3 C          65.9541   92.3935   13.1393 C.ar    1  UNL1        0.1391
      4 C          65.7319   92.3805   14.6227 C.ar    1  UNL1        0.0827
      5 C          66.4577   93.0496   15.7521 C.ar    1  UNL1        0.0866
      6 C          67.6547   93.9444   15.6239 C.3     1  UNL1        0.0542
      7 N          65.7762   92.6667   17.0323 N.ar    1  UNL1       -0.1508
      8 N          64.6293   91.7611   16.6941 N.ar    1  UNL1       -0.1305
      9 C          64.6019   91.5841   15.2048 C.ar    1  UNL1        0.1679
     10 N          63.6941   90.8008   14.3036 N.ar    1  UNL1       -0.3104
     11 H          62.9524   90.2782   14.6857 H       1  UNL1        0.1701
     12 N          63.0083   90.0305   11.9190 N.pl3   1  UNL1       -0.2816
     13 H          62.4405   90.4984   11.2650 H       1  UNL1        0.1551
     14 C          64.0531   85.6556   14.5209 C.3     1  UNL1        0.0307
     15 C          63.4881   86.3466   13.3154 C.ar    1  UNL1       -0.0244
     16 C          63.5307   87.8430   13.2199 C.ar    1  UNL1        0.0132
     17 C          62.9657   88.5341   12.0144 C.ar    1  UNL1        0.0845
     18 C          62.3581   87.7288   10.9044 C.ar    1  UNL1        0.1513
     19 C          62.3154   86.2324   10.9998 C.ar    1  UNL1        0.0336
     20 C          62.8804   85.5414   12.2052 C.ar    1  UNL1       -0.0233
     21 C          62.8377   84.0450   12.3006 C.3     1  UNL1        0.0249
     22 C          62.3604   83.3872   13.5613 C.3     1  UNL1        0.0217
     23 C          62.3178   81.8908   13.6568 C.3     1  UNL1        0.0725
     24 N          62.7525   81.0523   12.4915 N.3     1  UNL1       -0.2715
     25 C          62.7099   79.5559   12.5868 C.3     1  UNL1        0.0896
     26 C          63.2298   81.7102   11.2307 C.3     1  UNL1        0.0725
     27 C          63.2724   83.2065   11.1353 C.3     1  UNL1        0.0217
     28 O          61.7931   88.4199    9.6989 O.3     1  UNL1       -0.4779
     29 C          60.3312   88.7506    9.6404 C.3     1  UNL1        0.1662
     30 C          59.8356   90.0579   10.1840 C.3     1  UNL1        0.0472
     31 C          59.3648   87.7740    9.0383 C.3     1  UNL1        0.0472
     32 N          67.0841   93.1898   12.5570 N.pl3   1  UNL1       -0.2967
     33 H          68.0151   92.9104   12.7135 H       1  UNL1        0.1536
     34 C          66.7957   94.4118   11.7364 C.ar    1  UNL1        0.0667
     35 C          66.1762   95.6175   12.3785 C.ar    1  UNL1        0.0159
     36 C          65.8878   96.8395   11.5578 C.ar    1  UNL1        0.0014
     37 C          66.2189   96.8557   10.0949 C.ar    1  UNL1        0.0014
     38 C          66.8384   95.6500    9.4527 C.ar    1  UNL1        0.0196
     39 C          67.1268   94.4280   10.2735 C.ar    1  UNL1        0.1189
     40 S          67.7464   93.2223    9.6313 S.O2    1  UNL1        0.0082
     41 O          69.0499   93.9550    9.5132 O.2     1  UNL1       -0.1686
     42 O          66.4428   92.4897    9.7493 O.2     1  UNL1       -0.1686
     43 C          68.3659   92.0166    8.9891 C.3     1  UNL1        0.1340
     44 C          67.7053   90.6760    9.1170 C.3     1  UNL1        0.0257
     45 C          69.6460   92.1515    8.2190 C.3     1  UNL1        0.0257
@<TRIPOS>BOND
     1    14    15    1
     2    15    16   ar
     3    16    17   ar
     4    17    12    1
     5    12     1    1
     6     1     2   ar
     7     2     3   ar
     8     3    32    1
     9    32    34    1
    10    34    35   ar
    11    35    36   ar
    12    36    37   ar
    13    37    38   ar
    14    38    39   ar
    15    39    40    1
    16    40    41    2
    17    40    42    2
    18    40    43    1
    19    43    44    1
    20    43    45    1
    21     3     4   ar
    22     4     5   ar
    23     5     6    1
    24     5     7   ar
    25     7     8   ar
    26     8     9   ar
    27     9    10   ar
    28    17    18   ar
    29    18    28    1
    30    28    29    1
    31    29    30    1
    32    29    31    1
    33    18    19   ar
    34    19    20   ar
    35    20    21    1
    36    21    22    1
    37    22    23    1
    38    23    24    1
    39    24    25    1
    40    24    26    1
    41    26    27    1
    42    20    15   ar
    43    27    21    1
    44    10     1   ar
    45    39    34   ar
    46     9     4    1
    47    12    13    1
    48    32    33    1
    49    10    11    1
@<TRIPOS>MOLECULE
*****
 45 49 0 0 0
SMALL
GASTEIGER

@<TRIPOS>ATOM
      1 C          63.7721   87.6083   14.1205 C.ar    1  UNL1        0.2006
      2 N          63.1845   87.3964   12.7568 N.ar    1  UNL1       -0.1999
      3 C          63.0663   86.0092   12.1983 C.ar    1  UNL1        0.1391
      4 C          63.5356   84.8341   13.0037 C.ar    1  UNL1        0.0827
      5 C          63.5468   83.3616   12.7178 C.ar    1  UNL1        0.0866
      6 C          63.0506   82.7029   11.4648 C.3     1  UNL1        0.0542
      7 N          64.1414   82.6635   13.9049 N.ar    1  UNL1       -0.1508
      8 N          64.4976   83.7045   14.9244 N.ar    1  UNL1       -0.1305
      9 C          64.1232   85.0460   14.3674 C.ar    1  UNL1        0.1679
     10 N          64.2415   86.4331   14.9258 N.ar    1  UNL1       -0.3104
     11 H          64.6272   86.5722   15.8209 H       1  UNL1        0.1701
     12 N          63.8904   88.9955   14.6790 N.pl3   1  UNL1       -0.2816
     13 H          63.6002   89.1813   15.6012 H       1  UNL1        0.1551
     14 C          67.7162   92.3437   13.6049 C.3     1  UNL1        0.0307
     15 C          66.3637   91.7737   13.2952 C.ar    1  UNL1       -0.0244
     16 C          65.8033   90.6696   14.1419 C.ar    1  UNL1        0.0132
     17 C          64.4508   90.0996   13.8323 C.ar    1  UNL1        0.0845
     18 C          63.6587   90.6337   12.6758 C.ar    1  UNL1        0.1513
     19 C          64.2192   91.7378   11.8290 C.ar    1  UNL1        0.0336
     20 C          65.5716   92.3078   12.1387 C.ar    1  UNL1       -0.0233
     21 C          66.1320   93.4118   11.2920 C.3     1  UNL1        0.0249
     22 C          66.8772   93.0859   10.0316 C.3     1  UNL1        0.0217
     23 C          67.4376   94.1900    9.1849 C.3     1  UNL1        0.0725
     24 N          67.2528   95.6199    9.5985 N.3     1  UNL1       -0.2715
     25 C          67.8132   96.7241    8.7518 C.3     1  UNL1        0.0896
     26 C          66.5076   95.9458   10.8588 C.3     1  UNL1        0.0725
     27 C          65.9472   94.8418   11.7056 C.3     1  UNL1        0.0217
     28 O          62.3062   90.0637   12.3661 O.3     1  UNL1       -0.4779
     29 C          61.6006   90.4519   11.1007 C.3     1  UNL1        0.1662
     30 C          62.2274   90.1543    9.7708 C.3     1  UNL1        0.0472
     31 C          60.2681   91.1377   11.1651 C.3     1  UNL1        0.0472
     32 N          62.4786   85.7974   10.8345 N.pl3   1  UNL1       -0.2967
     33 H          62.8817   85.1410   10.2214 H       1  UNL1        0.1536
     34 C          61.2769   86.5856   10.4050 C.ar    1  UNL1        0.0667
     35 C          60.5318   87.4211   11.4034 C.ar    1  UNL1        0.0159
     36 C          59.3301   88.2092   10.9737 C.ar    1  UNL1        0.0014
     37 C          58.8734   88.1618    9.5457 C.ar    1  UNL1        0.0014
     38 C          59.6184   87.3263    8.5474 C.ar    1  UNL1        0.0196
     39 C          60.8202   86.5382    8.9770 C.ar    1  UNL1        0.1189
     40 S          61.5652   85.7026    7.9786 S.O2    1  UNL1        0.0082
     41 O          60.2637   85.2519    7.3846 O.2     1  UNL1       -0.1686
     42 O          62.8667   86.1534    8.5727 O.2     1  UNL1       -0.1686
     43 C          62.3103   84.8671    6.9802 C.3     1  UNL1        0.1340
     44 C          61.6162   84.3801    5.7429 C.3     1  UNL1        0.0257
     45 C          63.7496   84.5186    7.2193 C.3     1  UNL1        0.0257
@<TRIPOS>BOND
     1    14    15    1
     2    15    16   ar
     3    16    17   ar
     4    17    12    1
     5    12     1    1
     6     1     2   ar
     7     2     3   ar
     8     3    32    1
     9    32    34    1
    10    34    35   ar
    11    35    36   ar
    12    36    37   ar
    13    37    38   ar
    14    38    39   ar
    15    39    40    1
    16    40    41    2
    17    40    42    2
    18    40    43    1
    19    43    44    1
    20    43    45    1
    21     3     4   ar
    22     4     5   ar
    23     5     6    1
    24     5     7   ar
    25     7     8   ar
    26     8     9   ar
    27     9    10   ar
    28    17    18   ar
    29    18    28    1
    30    28    29    1
    31    29    30    1
    32    29    31    1
    33    18    19   ar
    34    19    20   ar
    35    20    21    1
    36    21    22    1
    37    22    23    1
    38    23    24    1
    39    24    25    1
    40    24    26    1
    41    26    27    1
    42    20    15   ar
    43    27    21    1
    44    10     1   ar
    45    39    34   ar
    46     9     4    1
    47    12    13    1
    48    32    33    1
    49    10    11    1
@<TRIPOS>MOLECULE
*****
 45 49 0 0 0
SMALL
GASTEIGER

@<TRIPOS>ATOM
      1 C          61.6345   88.8287   11.3739 C.ar    1  UNL1        0.2006
      2 N          62.3276   87.5774   11.8250 N.ar    1  UNL1       -0.1999
      3 C          62.3379   86.3654   10.9412 C.ar    1  UNL1        0.1391
      4 C          61.6550   86.4049    9.6062 C.ar    1  UNL1        0.0827
      5 C          61.4999   85.3745    8.5274 C.ar    1  UNL1        0.0866
      6 C          62.0392   83.9751    8.5605 C.3     1  UNL1        0.0542
      7 N          60.7109   85.9890    7.4095 N.ar    1  UNL1       -0.1508
      8 N          60.3783   87.3993    7.7974 N.ar    1  UNL1       -0.1305
      9 C          60.9618   87.6564    9.1552 C.ar    1  UNL1        0.1679
     10 N          60.9516   88.8683   10.0390 N.ar    1  UNL1       -0.3104
     11 H          60.4966   89.6896    9.7429 H       1  UNL1        0.1701
     12 N          61.6241   90.0407   12.2578 N.pl3   1  UNL1       -0.2816
     13 H          60.7690   90.4561   12.5137 H       1  UNL1        0.1551
     14 C          65.7770   93.0714   11.5029 C.3     1  UNL1        0.0307
     15 C          64.9932   92.1351   12.3742 C.ar    1  UNL1       -0.0244
     16 C          63.7006   91.5561   11.8803 C.ar    1  UNL1        0.0132
     17 C          62.9167   90.6198   12.7516 C.ar    1  UNL1        0.0845
     18 C          63.4255   90.2626   14.1167 C.ar    1  UNL1        0.1513
     19 C          64.7182   90.8417   14.6105 C.ar    1  UNL1        0.0336
     20 C          65.5020   91.7779   13.7393 C.ar    1  UNL1       -0.0233
     21 C          66.7945   92.3569   14.2332 C.3     1  UNL1        0.0249
     22 C          66.7821   93.4715   15.2370 C.3     1  UNL1        0.0217
     23 C          68.0747   94.0505   15.7308 C.3     1  UNL1        0.0725
     24 N          69.3797   93.5151   15.2208 N.3     1  UNL1       -0.2715
     25 C          70.6724   94.0941   15.7146 C.3     1  UNL1        0.0896
     26 C          69.3922   92.4005   14.2170 C.3     1  UNL1        0.0725
     27 C          68.0996   91.8214   13.7232 C.3     1  UNL1        0.0217
     28 O          62.6417   89.3263   14.9880 O.3     1  UNL1       -0.4779
     29 C          62.9636   89.2146   16.4487 C.3     1  UNL1        0.1662
     30 C          63.4884   90.4058   17.1943 C.3     1  UNL1        0.0472
     31 C          62.7608   87.9118   17.1639 C.3     1  UNL1        0.0472
     32 N          63.0312   85.1140   11.3924 N.pl3   1  UNL1       -0.2967
     33 H          63.1312   84.3559   10.7724 H       1  UNL1        0.1536
     34 C          63.5720   85.0179   12.7881 C.ar    1  UNL1        0.0667
     35 C          63.9439   86.2639   13.5359 C.ar    1  UNL1        0.0159
     36 C          64.4847   86.1676   14.9317 C.ar    1  UNL1        0.0014
     37 C          64.6536   84.8254   15.5797 C.ar    1  UNL1        0.0014
     38 C          64.2818   83.5794   14.8319 C.ar    1  UNL1        0.0196
     39 C          63.7409   83.6756   13.4361 C.ar    1  UNL1        0.1189
     40 S          63.3690   82.4297   12.6883 S.O2    1  UNL1        0.0082
     41 O          62.2031   82.2248   13.6095 O.2     1  UNL1       -0.1686
     42 O          64.5350   82.6345   11.7671 O.2     1  UNL1       -0.1686
     43 C          62.9971   81.1837   11.9405 C.3     1  UNL1        0.1340
     44 C          63.1836   81.1174   10.4537 C.3     1  UNL1        0.0257
     45 C          62.4387   80.0039   12.6797 C.3     1  UNL1        0.0257
@<TRIPOS>BOND
     1    14    15    1
     2    15    16   ar
     3    16    17   ar
     4    17    12    1
     5    12     1    1
     6     1     2   ar
     7     2     3   ar
     8     3    32    1
     9    32    34    1
    10    34    35   ar
    11    35    36   ar
    12    36    37   ar
    13    37    38   ar
    14    38    39   ar
    15    39    40    1
    16    40    41    2
    17    40    42    2
    18    40    43    1
    19    43    44    1
    20    43    45    1
    21     3     4   ar
    22     4     5   ar
    23     5     6    1
    24     5     7   ar
    25     7     8   ar
    26     8     9   ar
    27     9    10   ar
    28    17    18   ar
    29    18    28    1
    30    28    29    1
    31    29    30    1
    32    29    31    1
    33    18    19   ar
    34    19    20   ar
    35    20    21    1
    36    21    22    1
    37    22    23    1
    38    23    24    1
    39    24    25    1
    40    24    26    1
    41    26    27    1
    42    20    15   ar
    43    27    21    1
    44    10     1   ar
    45    39    34   ar
    46     9     4    1
    47    12    13    1
    48    32    33    1
    49    10    11    1
