@<TRIPOS>MOLECULE
*****
 25 27 0 0 0
SMALL
GASTEIGER

@<TRIPOS>ATOM
      1 C          63.1766   89.9857   13.7309 C.3     1  UNL1        0.2469
      2 C          64.1061   90.7783   15.3238 C.3     1  UNL1        0.0497
      3 C          64.1998   91.0752   13.8565 C.3     1  UNL1        0.1969
      4 C          64.0796   91.1444   12.3629 C.3     1  UNL1        0.1543
      5 N          65.0091   92.2146   11.8722 N.ar    1  UNL1       -0.2713
      6 C          65.5092   92.9188   10.6459 C.ar    1  UNL1        0.1780
      7 C          66.5129   93.9463   11.0782 C.ar    1  UNL1        0.3976
      8 N          66.6331   93.8771   12.5718 N.ar    1  UNL1       -0.1275
      9 C          65.7037   92.8069   13.0625 C.ar    1  UNL1        0.3058
     10 O          65.2035   92.1027   14.2889 O.3     1  UNL1       -0.4493
     11 N          67.2644   94.8791   10.1755 N.pl3   1  UNL1        0.1030
     12 O          66.8135   96.3017   10.0238 O.2     1  UNL1        0.0432
     13 O          68.4669   94.3895    9.4244 O.co2   1  UNL1       -0.5746
     14 O          63.3421   88.9175   12.6908 O.3     1  UNL1       -0.4716
     15 C          63.5204   87.4873   13.1063 C.ar    1  UNL1        0.1389
     16 C          62.9691   86.3840   12.2526 C.ar    1  UNL1        0.0400
     17 C          63.1473   84.9538   12.6681 C.ar    1  UNL1        0.0403
     18 C          63.8769   84.6268   13.9373 C.ar    1  UNL1        0.1470
     19 C          64.4282   85.7301   14.7910 C.ar    1  UNL1        0.0403
     20 C          64.2499   87.1604   14.3755 C.ar    1  UNL1        0.0400
     21 O          64.0552   83.1966   14.3528 O.3     1  UNL1       -0.4045
     22 C          62.8665   82.2851   14.4329 C.3     1  UNL1        0.5753
     23 F          61.6780   81.3736   14.5129 F       1  UNL1       -0.1328
     24 F          62.1383   83.3069   15.2548 F       1  UNL1       -0.1328
     25 F          63.5948   81.2634   13.6109 F       1  UNL1       -0.1328
@<TRIPOS>UNITY_ATOM_ATTR
11 1
charge 1
13 1
charge -1
@<TRIPOS>BOND
     1     3     2    1
     2     3     1    1
     3     1    14    1
     4    14    15    1
     5    15    16   ar
     6    16    17   ar
     7    17    18   ar
     8    18    21    1
     9    21    22    1
    10    22    23    1
    11    22    24    1
    12    22    25    1
    13    18    19   ar
    14    19    20   ar
    15     3     4    1
    16     4     5    1
    17     5     6   ar
    18     6     7   ar
    19     7    11    1
    20    11    12    2
    21    11    13    1
    22     7     8   ar
    23     8     9   ar
    24     9    10    1
    25    10     3    1
    26    20    15   ar
    27     9     5   ar
@<TRIPOS>MOLECULE
*****
 25 27 0 0 0
SMALL
GASTEIGER

@<TRIPOS>ATOM
      1 C          63.0742   89.9366   13.5335 C.3     1  UNL1        0.2469
      2 C          64.0858   90.5456   15.1569 C.3     1  UNL1        0.0497
      3 C          64.1415   90.9738   13.7204 C.3     1  UNL1        0.1969
      4 C          63.9741   91.1851   12.2448 C.3     1  UNL1        0.1543
      5 N          64.9264   92.2634   11.8201 N.ar    1  UNL1       -0.2713
      6 C          65.4115   93.0605   10.6456 C.ar    1  UNL1        0.1780
      7 C          66.4673   94.0082   11.1327 C.ar    1  UNL1        0.3976
      8 N          66.6347   93.7968   12.6083 N.ar    1  UNL1       -0.1275
      9 C          65.6824   92.7185   13.0331 C.ar    1  UNL1        0.3058
     10 O          65.1973   91.9215   14.2076 O.3     1  UNL1       -0.4493
     11 N          67.2229   94.9941   10.2920 N.pl3   1  UNL1        0.1030
     12 O          68.3776   94.5341    9.4522 O.2     1  UNL1        0.0432
     13 O          66.8239   96.4400   10.2909 O.co2   1  UNL1       -0.5746
     14 O          63.4504   88.5290   13.1771 O.3     1  UNL1       -0.4716
     15 C          62.8477   87.8745   11.9695 C.ar    1  UNL1        0.1389
     16 C          62.7111   86.3816   11.9151 C.ar    1  UNL1        0.0400
     17 C          62.1084   85.7272   10.7075 C.ar    1  UNL1        0.0403
     18 C          61.6423   86.5654    9.5542 C.ar    1  UNL1        0.1470
     19 C          61.7788   88.0582    9.6085 C.ar    1  UNL1        0.0403
     20 C          62.3816   88.7127   10.8162 C.ar    1  UNL1        0.0400
     21 O          61.0396   85.9110    8.3466 O.3     1  UNL1       -0.4045
     22 C          61.9218   85.2215    7.3484 C.3     1  UNL1        0.5753
     23 F          62.8040   84.5320    6.3502 F       1  UNL1       -0.1328
     24 F          60.7102   84.6573    6.6673 F       1  UNL1       -0.1328
     25 F          63.1333   85.7856    8.0294 F       1  UNL1       -0.1328
@<TRIPOS>UNITY_ATOM_ATTR
11 1
charge 1
13 1
charge -1
@<TRIPOS>BOND
     1     3     2    1
     2     3     1    1
     3     1    14    1
     4    14    15    1
     5    15    16   ar
     6    16    17   ar
     7    17    18   ar
     8    18    21    1
     9    21    22    1
    10    22    23    1
    11    22    24    1
    12    22    25    1
    13    18    19   ar
    14    19    20   ar
    15     3     4    1
    16     4     5    1
    17     5     6   ar
    18     6     7   ar
    19     7    11    1
    20    11    12    2
    21    11    13    1
    22     7     8   ar
    23     8     9   ar
    24     9    10    1
    25    10     3    1
    26    20    15   ar
    27     9     5   ar
@<TRIPOS>MOLECULE
*****
 25 27 0 0 0
SMALL
GASTEIGER

@<TRIPOS>ATOM
      1 C          60.6940   89.2882    9.8051 C.3     1  UNL1        0.2469
      2 C          60.1000   89.0879   11.7120 C.3     1  UNL1        0.0497
      3 C          61.2947   89.7551   11.0978 C.3     1  UNL1        0.1969
      4 C          62.3639   90.3247   10.2132 C.3     1  UNL1        0.1543
      5 N          63.3756   91.0042   11.0877 N.ar    1  UNL1       -0.2713
      6 C          64.6617   91.7762   11.0815 C.ar    1  UNL1        0.1780
      7 C          65.0127   92.1036   12.5026 C.ar    1  UNL1        0.3976
      8 N          63.9434   91.5340   13.3872 N.ar    1  UNL1       -0.1275
      9 C          62.9317   90.8545   12.5127 C.ar    1  UNL1        0.3058
     10 O          61.6456   90.0825   12.5189 O.3     1  UNL1       -0.4493
     11 N          66.2207   92.8667   12.9591 N.pl3   1  UNL1        0.1030
     12 O          66.0961   93.8819   14.0564 O.2     1  UNL1        0.0432
     13 O          67.5533   92.6146   12.3183 O.co2   1  UNL1       -0.5746
     14 O          60.2232   87.8708    9.6655 O.3     1  UNL1       -0.4716
     15 C          61.2067   86.7417    9.7539 C.ar    1  UNL1        0.1389
     16 C          61.9950   86.3371    8.5435 C.ar    1  UNL1        0.0400
     17 C          62.9785   85.2081    8.6319 C.ar    1  UNL1        0.0403
     18 C          63.1738   84.4835    9.9308 C.ar    1  UNL1        0.1470
     19 C          62.3857   84.8881   11.1411 C.ar    1  UNL1        0.0403
     20 C          61.4021   86.0172   11.0528 C.ar    1  UNL1        0.0400
     21 O          64.1574   83.3545   10.0192 O.3     1  UNL1       -0.4045
     22 C          64.1163   82.4137   11.1869 C.3     1  UNL1        0.5753
     23 F          64.0753   81.4730   12.3545 F       1  UNL1       -0.1328
     24 F          63.2101   81.4986   10.4177 F       1  UNL1       -0.1328
     25 F          65.0224   83.3288   11.9559 F       1  UNL1       -0.1328
@<TRIPOS>UNITY_ATOM_ATTR
11 1
charge 1
13 1
charge -1
@<TRIPOS>BOND
     1     3     2    1
     2     3     1    1
     3     1    14    1
     4    14    15    1
     5    15    16   ar
     6    16    17   ar
     7    17    18   ar
     8    18    21    1
     9    21    22    1
    10    22    23    1
    11    22    24    1
    12    22    25    1
    13    18    19   ar
    14    19    20   ar
    15     3     4    1
    16     4     5    1
    17     5     6   ar
    18     6     7   ar
    19     7    11    1
    20    11    12    2
    21    11    13    1
    22     7     8   ar
    23     8     9   ar
    24     9    10    1
    25    10     3    1
    26    20    15   ar
    27     9     5   ar
@<TRIPOS>MOLECULE
*****
 25 27 0 0 0
SMALL
GASTEIGER

@<TRIPOS>ATOM
      1 C          63.1536   90.1585   13.2584 C.3     1  UNL1        0.2469
      2 C          63.9678   88.3661   13.6508 C.3     1  UNL1        0.0497
      3 C          62.9763   88.8137   12.6181 C.3     1  UNL1        0.1969
      4 C          62.0219   89.5424   11.7192 C.3     1  UNL1        0.1543
      5 N          61.4620   88.5543   10.7392 N.ar    1  UNL1       -0.2713
      6 C          60.5261   88.3940    9.5780 C.ar    1  UNL1        0.1780
      7 C          60.5561   86.9556    9.1536 C.ar    1  UNL1        0.3976
      8 N          61.5105   86.2269   10.0526 N.ar    1  UNL1       -0.1275
      9 C          62.0704   87.2150   11.0325 C.ar    1  UNL1        0.3058
     10 O          63.0063   87.3753   12.1937 O.3     1  UNL1       -0.4493
     11 N          59.7697   86.3519    8.0280 N.pl3   1  UNL1        0.1030
     12 O          58.3523   86.7807    7.7888 O.2     1  UNL1        0.0432
     13 O          60.4007   85.3194    7.1415 O.co2   1  UNL1       -0.5746
     14 O          64.5252   90.6346   13.6355 O.3     1  UNL1       -0.4716
     15 C          65.1338   91.8070   12.9249 C.ar    1  UNL1        0.1389
     16 C          66.0148   92.7629   13.6734 C.ar    1  UNL1        0.0400
     17 C          66.6235   93.9353   12.9628 C.ar    1  UNL1        0.0403
     18 C          66.3512   94.1519   11.5037 C.ar    1  UNL1        0.1470
     19 C          65.4702   93.1961   10.7552 C.ar    1  UNL1        0.0403
     20 C          64.8615   92.0236   11.4658 C.ar    1  UNL1        0.0400
     21 O          66.9598   95.3243   10.7931 O.3     1  UNL1       -0.4045
     22 C          67.2513   95.2421    9.3239 C.3     1  UNL1        0.5753
     23 F          67.5427   95.1599    7.8548 F       1  UNL1       -0.1328
     24 F          68.3898   94.3059    9.6022 F       1  UNL1       -0.1328
     25 F          66.1128   96.1782    9.0457 F       1  UNL1       -0.1328
@<TRIPOS>UNITY_ATOM_ATTR
11 1
charge 1
13 1
charge -1
@<TRIPOS>BOND
     1     3     2    1
     2     3     1    1
     3     1    14    1
     4    14    15    1
     5    15    16   ar
     6    16    17   ar
     7    17    18   ar
     8    18    21    1
     9    21    22    1
    10    22    23    1
    11    22    24    1
    12    22    25    1
    13    18    19   ar
    14    19    20   ar
    15     3     4    1
    16     4     5    1
    17     5     6   ar
    18     6     7   ar
    19     7    11    1
    20    11    12    2
    21    11    13    1
    22     7     8   ar
    23     8     9   ar
    24     9    10    1
    25    10     3    1
    26    20    15   ar
    27     9     5   ar
@<TRIPOS>MOLECULE
*****
 25 27 0 0 0
SMALL
GASTEIGER

@<TRIPOS>ATOM
      1 C          61.6718   89.1873   11.4561 C.3     1  UNL1        0.2469
      2 C          62.1542   90.5141   10.0291 C.3     1  UNL1        0.0497
      3 C          62.7015   90.2768   11.4054 C.3     1  UNL1        0.1969
      4 C          63.0335   89.8117   12.7922 C.3     1  UNL1        0.1543
      5 N          64.1540   90.6634   13.3109 N.ar    1  UNL1       -0.2713
      6 C          65.0517   90.9024   14.4886 C.ar    1  UNL1        0.1780
      7 C          65.9670   92.0416   14.1503 C.ar    1  UNL1        0.3976
      8 N          65.6350   92.5067   12.7633 N.ar    1  UNL1       -0.1275
      9 C          64.5145   91.6549   12.2446 C.ar    1  UNL1        0.3058
     10 O          63.6168   91.4160   11.0669 O.3     1  UNL1       -0.4493
     11 N          67.0280   92.6149   15.0421 N.pl3   1  UNL1        0.1030
     12 O          66.7441   92.8378   16.4981 O.2     1  UNL1        0.0432
     13 O          68.3730   92.9655   14.4780 O.co2   1  UNL1       -0.5746
     14 O          61.4555   88.3036   10.2634 O.3     1  UNL1       -0.4716
     15 C          62.0526   86.9280   10.2310 C.ar    1  UNL1        0.1389
     16 C          62.1564   86.1255   11.4940 C.ar    1  UNL1        0.0400
     17 C          62.7535   84.7499   11.4616 C.ar    1  UNL1        0.0403
     18 C          63.2467   84.1767   10.1662 C.ar    1  UNL1        0.1470
     19 C          63.1429   84.9791    8.9032 C.ar    1  UNL1        0.0403
     20 C          62.5458   86.3548    8.9355 C.ar    1  UNL1        0.0400
     21 O          63.8438   82.8010   10.1338 O.3     1  UNL1       -0.4045
     22 C          63.8319   81.9490   11.3683 C.3     1  UNL1        0.5753
     23 F          63.8200   81.0969   12.6027 F       1  UNL1       -0.1328
     24 F          64.9807   82.7376   11.9237 F       1  UNL1       -0.1328
     25 F          62.6832   81.1604   10.8129 F       1  UNL1       -0.1328
@<TRIPOS>UNITY_ATOM_ATTR
11 1
charge 1
13 1
charge -1
@<TRIPOS>BOND
     1     3     2    1
     2     3     1    1
     3     1    14    1
     4    14    15    1
     5    15    16   ar
     6    16    17   ar
     7    17    18   ar
     8    18    21    1
     9    21    22    1
    10    22    23    1
    11    22    24    1
    12    22    25    1
    13    18    19   ar
    14    19    20   ar
    15     3     4    1
    16     4     5    1
    17     5     6   ar
    18     6     7   ar
    19     7    11    1
    20    11    12    2
    21    11    13    1
    22     7     8   ar
    23     8     9   ar
    24     9    10    1
    25    10     3    1
    26    20    15   ar
    27     9     5   ar
@<TRIPOS>MOLECULE
*****
 25 27 0 0 0
SMALL
GASTEIGER

@<TRIPOS>ATOM
      1 C          64.2363   88.4508   15.3206 C.3     1  UNL1        0.2469
      2 C          63.0745   87.8995   16.8619 C.3     1  UNL1        0.0497
      3 C          63.6141   87.1365   15.6886 C.3     1  UNL1        0.1969
      4 C          64.2837   86.6483   14.4383 C.3     1  UNL1        0.1543
      5 N          63.9625   85.1918   14.2789 N.ar    1  UNL1       -0.2713
      6 C          64.1778   83.9899   13.4077 C.ar    1  UNL1        0.1780
      7 C          63.4427   82.8351   14.0210 C.ar    1  UNL1        0.3976
      8 N          62.7730   83.3234   15.2713 N.ar    1  UNL1       -0.1275
      9 C          63.0943   84.7799   15.4307 C.ar    1  UNL1        0.3058
     10 O          62.8789   85.9818   16.3019 O.3     1  UNL1       -0.4493
     11 N          63.3870   81.4376   13.4792 N.pl3   1  UNL1        0.1030
     12 O          63.5514   80.2676   14.4036 O.2     1  UNL1        0.0432
     13 O          63.1669   81.2098   12.0130 O.co2   1  UNL1       -0.5746
     14 O          63.5356   89.3712   14.3656 O.3     1  UNL1       -0.4716
     15 C          64.3162   90.4092   13.6153 C.ar    1  UNL1        0.1389
     16 C          63.8496   90.8683   12.2656 C.ar    1  UNL1        0.0400
     17 C          64.6302   91.9063   11.5152 C.ar    1  UNL1        0.0403
     18 C          65.8774   92.4854   12.1145 C.ar    1  UNL1        0.1470
     19 C          66.3440   92.0264   13.4641 C.ar    1  UNL1        0.0403
     20 C          65.5634   90.9883   14.2145 C.ar    1  UNL1        0.0400
     21 O          66.6580   93.5235   11.3641 O.3     1  UNL1       -0.4045
     22 C          67.3265   93.1684   10.0691 C.3     1  UNL1        0.5753
     23 F          67.9950   92.8134    8.7741 F       1  UNL1       -0.1328
     24 F          66.6691   94.3434    9.4077 F       1  UNL1       -0.1328
     25 F          67.9838   91.9935   10.7305 F       1  UNL1       -0.1328
@<TRIPOS>UNITY_ATOM_ATTR
11 1
charge 1
13 1
charge -1
@<TRIPOS>BOND
     1     3     2    1
     2     3     1    1
     3     1    14    1
     4    14    15    1
     5    15    16   ar
     6    16    17   ar
     7    17    18   ar
     8    18    21    1
     9    21    22    1
    10    22    23    1
    11    22    24    1
    12    22    25    1
    13    18    19   ar
    14    19    20   ar
    15     3     4    1
    16     4     5    1
    17     5     6   ar
    18     6     7   ar
    19     7    11    1
    20    11    12    2
    21    11    13    1
    22     7     8   ar
    23     8     9   ar
    24     9    10    1
    25    10     3    1
    26    20    15   ar
    27     9     5   ar
@<TRIPOS>MOLECULE
*****
 25 27 0 0 0
SMALL
GASTEIGER

@<TRIPOS>ATOM
      1 C          62.0299   88.1793   11.4308 C.3     1  UNL1        0.2469
      2 C          61.8601   88.9503    9.5853 C.3     1  UNL1        0.0497
      3 C          62.6052   89.4135   10.8019 C.3     1  UNL1        0.1969
      4 C          63.2300   89.6187   12.1501 C.3     1  UNL1        0.1543
      5 N          64.0357   90.8829   12.1000 N.ar    1  UNL1       -0.2713
      6 C          64.9198   91.7911   12.9022 C.ar    1  UNL1        0.1780
      7 C          65.3394   92.9286   12.0190 C.ar    1  UNL1        0.3976
      8 N          64.7145   92.7234   10.6708 N.ar    1  UNL1       -0.1275
      9 C          63.9088   91.4591   10.7209 C.ar    1  UNL1        0.3058
     10 O          63.0247   90.5510    9.9186 O.3     1  UNL1       -0.4493
     11 N          66.2277   94.0706   12.4144 N.pl3   1  UNL1        0.1030
     12 O          66.8220   94.9581   11.3611 O.2     1  UNL1        0.0432
     13 O          66.5218   94.3254   13.8630 O.co2   1  UNL1       -0.5746
     14 O          62.7385   87.5220   12.5780 O.3     1  UNL1       -0.4716
     15 C          63.0599   86.0580   12.5214 C.ar    1  UNL1        0.1389
     16 C          62.5011   85.2095   11.4178 C.ar    1  UNL1        0.0400
     17 C          62.8225   83.7455   11.3612 C.ar    1  UNL1        0.0403
     18 C          63.7028   83.1298   12.4082 C.ar    1  UNL1        0.1470
     19 C          64.2616   83.9782   13.5118 C.ar    1  UNL1        0.0403
     20 C          63.9402   85.4423   13.5684 C.ar    1  UNL1        0.0400
     21 O          64.0242   81.6658   12.3516 O.3     1  UNL1       -0.4045
     22 C          62.9693   80.6529   12.6853 C.3     1  UNL1        0.5753
     23 F          61.9145   79.6400   13.0190 F       1  UNL1       -0.1328
     24 F          62.7579   80.3915   11.2234 F       1  UNL1       -0.1328
     25 F          63.1808   80.9143   14.1471 F       1  UNL1       -0.1328
@<TRIPOS>UNITY_ATOM_ATTR
11 1
charge 1
13 1
charge -1
@<TRIPOS>BOND
     1     3     2    1
     2     3     1    1
     3     1    14    1
     4    14    15    1
     5    15    16   ar
     6    16    17   ar
     7    17    18   ar
     8    18    21    1
     9    21    22    1
    10    22    23    1
    11    22    24    1
    12    22    25    1
    13    18    19   ar
    14    19    20   ar
    15     3     4    1
    16     4     5    1
    17     5     6   ar
    18     6     7   ar
    19     7    11    1
    20    11    12    2
    21    11    13    1
    22     7     8   ar
    23     8     9   ar
    24     9    10    1
    25    10     3    1
    26    20    15   ar
    27     9     5   ar
@<TRIPOS>MOLECULE
*****
 25 27 0 0 0
SMALL
GASTEIGER

@<TRIPOS>ATOM
      1 C          62.2865   90.0269   11.7315 C.3     1  UNL1        0.2469
      2 C          62.9941   90.9994   10.1244 C.3     1  UNL1        0.0497
      3 C          63.4805   90.9145   11.5407 C.3     1  UNL1        0.1969
      4 C          63.7173   90.6440   12.9970 C.3     1  UNL1        0.1543
      5 N          64.9560   91.3822   13.4101 N.ar    1  UNL1       -0.2713
      6 C          65.8680   91.6712   14.5654 C.ar    1  UNL1        0.1780
      7 C          66.9604   92.5766   14.0786 C.ar    1  UNL1        0.3976
      8 N          66.7235   92.8471   12.6222 N.ar    1  UNL1       -0.1275
      9 C          65.4848   92.1089   12.2091 C.ar    1  UNL1        0.3058
     10 O          64.5729   91.8198   11.0538 O.3     1  UNL1       -0.4493
     11 N          68.0910   93.1166   14.9031 N.pl3   1  UNL1        0.1030
     12 O          67.8029   93.9020   16.1483 O.2     1  UNL1        0.0432
     13 O          69.5098   92.8714   14.4826 O.co2   1  UNL1       -0.5746
     14 O          62.0339   88.8948   10.7804 O.3     1  UNL1       -0.4716
     15 C          62.3931   87.4921   11.1718 C.ar    1  UNL1        0.1389
     16 C          63.0269   87.2242   12.5047 C.ar    1  UNL1        0.0400
     17 C          63.3861   85.8215   12.8961 C.ar    1  UNL1        0.0403
     18 C          63.1116   84.6865   11.9546 C.ar    1  UNL1        0.1470
     19 C          62.4779   84.9543   10.6217 C.ar    1  UNL1        0.0403
     20 C          62.1186   86.3571   10.2303 C.ar    1  UNL1        0.0400
     21 O          63.4709   83.2838   12.3460 O.3     1  UNL1       -0.4045
     22 C          62.4876   82.4413   13.1033 C.3     1  UNL1        0.5753
     23 F          61.5045   81.5988   13.8607 F       1  UNL1       -0.1328
     24 F          62.0857   81.7631   11.8271 F       1  UNL1       -0.1328
     25 F          62.8895   83.1194   14.3794 F       1  UNL1       -0.1328
@<TRIPOS>UNITY_ATOM_ATTR
11 1
charge 1
13 1
charge -1
@<TRIPOS>BOND
     1     3     2    1
     2     3     1    1
     3     1    14    1
     4    14    15    1
     5    15    16   ar
     6    16    17   ar
     7    17    18   ar
     8    18    21    1
     9    21    22    1
    10    22    23    1
    11    22    24    1
    12    22    25    1
    13    18    19   ar
    14    19    20   ar
    15     3     4    1
    16     4     5    1
    17     5     6   ar
    18     6     7   ar
    19     7    11    1
    20    11    12    2
    21    11    13    1
    22     7     8   ar
    23     8     9   ar
    24     9    10    1
    25    10     3    1
    26    20    15   ar
    27     9     5   ar
@<TRIPOS>MOLECULE
*****
 25 27 0 0 0
SMALL
GASTEIGER

@<TRIPOS>ATOM
      1 C          63.2659   89.3182   12.9976 C.3     1  UNL1        0.2469
      2 C          63.1097   90.7461   11.5954 C.3     1  UNL1        0.0497
      3 C          64.0538   90.5698   12.7476 C.3     1  UNL1        0.1969
      4 C          64.8332   90.1318   13.9521 C.3     1  UNL1        0.1543
      5 N          65.9054   91.1497   14.2056 N.ar    1  UNL1       -0.2713
      6 C          67.0498   91.5080   15.1067 C.ar    1  UNL1        0.1780
      7 C          67.6404   92.7966   14.6159 C.ar    1  UNL1        0.3976
      8 N          66.8610   93.2346   13.4114 N.ar    1  UNL1       -0.1275
      9 C          65.7887   92.2167   13.1579 C.ar    1  UNL1        0.3058
     10 O          64.6444   91.8583   12.2568 O.3     1  UNL1       -0.4493
     11 N          68.8057   93.5201   15.2229 N.pl3   1  UNL1        0.1030
     12 O          68.5791   94.5256   16.3128 O.2     1  UNL1        0.0432
     13 O          70.1976   93.2382   14.7402 O.co2   1  UNL1       -0.5746
     14 O          63.6903   88.3679   14.0779 O.3     1  UNL1       -0.4716
     15 C          63.7708   86.8972   13.7940 C.ar    1  UNL1        0.1389
     16 C          63.0761   86.3259   12.5935 C.ar    1  UNL1        0.0400
     17 C          63.1566   84.8553   12.3097 C.ar    1  UNL1        0.0403
     18 C          63.9318   83.9558   13.2262 C.ar    1  UNL1        0.1470
     19 C          64.6264   84.5271   14.4267 C.ar    1  UNL1        0.0403
     20 C          64.5459   85.9978   14.7106 C.ar    1  UNL1        0.0400
     21 O          64.0123   82.4852   12.9424 O.3     1  UNL1       -0.4045
     22 C          63.5273   81.9472   11.6288 C.3     1  UNL1        0.5753
     23 F          63.0422   81.4092   10.3153 F       1  UNL1       -0.1328
     24 F          64.8223   82.3480   10.9865 F       1  UNL1       -0.1328
     25 F          62.2324   81.5465   12.2711 F       1  UNL1       -0.1328
@<TRIPOS>UNITY_ATOM_ATTR
11 1
charge 1
13 1
charge -1
@<TRIPOS>BOND
     1     3     2    1
     2     3     1    1
     3     1    14    1
     4    14    15    1
     5    15    16   ar
     6    16    17   ar
     7    17    18   ar
     8    18    21    1
     9    21    22    1
    10    22    23    1
    11    22    24    1
    12    22    25    1
    13    18    19   ar
    14    19    20   ar
    15     3     4    1
    16     4     5    1
    17     5     6   ar
    18     6     7   ar
    19     7    11    1
    20    11    12    2
    21    11    13    1
    22     7     8   ar
    23     8     9   ar
    24     9    10    1
    25    10     3    1
    26    20    15   ar
    27     9     5   ar
