@<TRIPOS>MOLECULE
*****
 23 25 0 0 0
SMALL
GASTEIGER

@<TRIPOS>ATOM
      1 C          63.1893   90.3296   12.0399 C.ar    1  UNL1        0.1593
      2 C          62.4227   90.7055   10.8066 C.ar    1  UNL1        0.0418
      3 C          61.7156   89.4800   10.3087 C.ar    1  UNL1        0.0394
      4 C          60.8142   89.2497    9.1321 C.ar    1  UNL1        0.0099
      5 C          60.2423   87.8859    8.8810 C.ar    1  UNL1        0.0360
      6 BR         59.3409   87.6556    7.7044 Br      1  UNL1       -0.0490
      7 C          60.5718   86.7524    9.8066 C.ar    1  UNL1        0.0241
      8 C          61.4733   86.9827   10.9832 C.ar    1  UNL1        0.0802
      9 C          62.0451   88.3465   11.2342 C.ar    1  UNL1        0.1583
     10 O          62.9559   88.8716   12.3042 O.2     1  UNL1       -0.4511
     11 O          63.8302   91.3383   14.3468 O.co2   1  UNL1       -0.5415
     12 C          64.0399   91.2499   12.8642 C.2     1  UNL1        0.1076
     13 O          65.1003   92.0819   12.2058 O.co2   1  UNL1       -0.5415
     14 N          61.8028   85.8493   11.9087 N.pl3   1  UNL1       -0.3302
     15 H          61.5501   85.9002   12.8589 H       1  UNL1        0.1469
     16 C          62.5175   84.6382   11.3866 C.3     1  UNL1        0.0871
     17 C          62.8723   83.5171   12.3179 C.3     1  UNL1        0.0223
     18 C          63.4265   83.8193   13.6786 C.3     1  UNL1        0.0188
     19 C          63.7813   82.6982   14.6099 C.3     1  UNL1        0.0686
     20 N          63.5818   81.2749   14.1805 N.3     1  UNL1       -0.2975
     21 C          63.0276   80.9727   12.8198 C.3     1  UNL1        0.0686
     22 C          62.6728   82.0937   11.8885 C.3     1  UNL1        0.0188
     23 H          62.9488   80.8491   14.8575 H       1  UNL1        0.1232
@<TRIPOS>UNITY_ATOM_ATTR
11 1
charge -1
@<TRIPOS>BOND
     1    11    12   ar
     2    12    13   ar
     3    12     1    1
     4     1     2   ar
     5     2     3   ar
     6     3     4   ar
     7     4     5   ar
     8     5     6    1
     9     5     7   ar
    10     7     8   ar
    11     8    14    1
    12    14    16    1
    13    16    17    1
    14    17    18    1
    15    18    19    1
    16    19    20    1
    17    20    21    1
    18    21    22    1
    19     8     9   ar
    20     9    10   ar
    21    10     1   ar
    22     9     3   ar
    23    22    17    1
    24    14    15    1
    25    20    23    1
@<TRIPOS>MOLECULE
*****
 23 25 0 0 0
SMALL
GASTEIGER

@<TRIPOS>ATOM
      1 C          63.4176   84.4067   13.4784 C.ar    1  UNL1        0.1593
      2 C          63.8186   83.7024   12.2163 C.ar    1  UNL1        0.0418
      3 C          63.2349   84.4570   11.0587 C.ar    1  UNL1        0.0394
      4 C          63.2987   84.2293    9.5775 C.ar    1  UNL1        0.0099
      5 C          62.6006   85.1725    8.6430 C.ar    1  UNL1        0.0360
      6 BR         62.6644   84.9448    7.1618 Br      1  UNL1       -0.0490
      7 C          61.8389   86.3433    9.1897 C.ar    1  UNL1        0.0241
      8 C          61.7751   86.5709   10.6711 C.ar    1  UNL1        0.0802
      9 C          62.4731   85.6278   11.6055 C.ar    1  UNL1        0.1583
     10 O          62.5860   85.5967   13.1009 O.2     1  UNL1       -0.4511
     11 O          64.1310   85.0337   15.8966 O.co2   1  UNL1       -0.5415
     12 C          63.7838   83.9936   14.8731 C.2     1  UNL1        0.1076
     13 O          63.8028   82.5405   15.2444 O.co2   1  UNL1       -0.5415
     14 N          61.0133   87.7417   11.2178 N.pl3   1  UNL1       -0.3302
     15 H          60.3757   87.6124   11.9567 H       1  UNL1        0.1469
     16 C          61.2232   89.1095   10.6388 C.3     1  UNL1        0.0871
     17 C          62.3453   89.9709   11.1375 C.3     1  UNL1        0.0223
     18 C          62.8338   89.8239   12.5481 C.3     1  UNL1        0.0188
     19 C          63.9560   90.6854   13.0468 C.3     1  UNL1        0.0686
     20 N          64.5896   91.6938   12.1350 N.3     1  UNL1       -0.2975
     21 C          64.1011   91.8409   10.7243 C.3     1  UNL1        0.0686
     22 C          62.9790   90.9794   10.2256 C.3     1  UNL1        0.0188
     23 H          65.5809   91.4596   12.0804 H       1  UNL1        0.1232
@<TRIPOS>UNITY_ATOM_ATTR
11 1
charge -1
@<TRIPOS>BOND
     1    11    12   ar
     2    12    13   ar
     3    12     1    1
     4     1     2   ar
     5     2     3   ar
     6     3     4   ar
     7     4     5   ar
     8     5     6    1
     9     5     7   ar
    10     7     8   ar
    11     8    14    1
    12    14    16    1
    13    16    17    1
    14    17    18    1
    15    18    19    1
    16    19    20    1
    17    20    21    1
    18    21    22    1
    19     8     9   ar
    20     9    10   ar
    21    10     1   ar
    22     9     3   ar
    23    22    17    1
    24    14    15    1
    25    20    23    1
@<TRIPOS>MOLECULE
*****
 23 25 0 0 0
SMALL
GASTEIGER

@<TRIPOS>ATOM
      1 C          62.9027   85.5187   12.3244 C.ar    1  UNL1        0.1593
      2 C          61.9718   85.1719   11.2004 C.ar    1  UNL1        0.0418
      3 C          61.5620   86.4482   10.5273 C.ar    1  UNL1        0.0394
      4 C          60.6594   86.7229    9.3612 C.ar    1  UNL1        0.0099
      5 C          60.4344   88.1335    8.9030 C.ar    1  UNL1        0.0360
      6 BR         59.5318   88.4082    7.7369 Br      1  UNL1       -0.0490
      7 C          61.1119   89.2691    9.6109 C.ar    1  UNL1        0.0241
      8 C          62.0146   88.9943   10.7770 C.ar    1  UNL1        0.0802
      9 C          62.2396   87.5838   11.2352 C.ar    1  UNL1        0.1583
     10 O          63.0681   87.0094   12.3458 O.2     1  UNL1       -0.4511
     11 O          63.1704   84.5306   14.7122 O.co2   1  UNL1       -0.5415
     12 C          63.5537   84.5457   13.2621 C.2     1  UNL1        0.1076
     13 O          64.5881   83.5878   12.7498 O.co2   1  UNL1       -0.5415
     14 N          62.6921   90.1300   11.4850 N.pl3   1  UNL1       -0.3302
     15 H          62.6409   90.1994   12.4657 H       1  UNL1        0.1469
     16 C          63.4478   91.1599   10.6986 C.3     1  UNL1        0.0871
     17 C          64.5476   91.9437   11.3514 C.3     1  UNL1        0.0223
     18 C          65.3502   92.9228   10.5470 C.3     1  UNL1        0.0188
     19 C          66.4500   93.7066   11.1998 C.3     1  UNL1        0.0686
     20 N          66.7472   93.5112   12.6570 N.3     1  UNL1       -0.2975
     21 C          65.9446   92.5320   13.4615 C.3     1  UNL1        0.0686
     22 C          64.8448   91.7483   12.8087 C.3     1  UNL1        0.0188
     23 H          66.6363   94.4210   13.1046 H       1  UNL1        0.1232
@<TRIPOS>UNITY_ATOM_ATTR
11 1
charge -1
@<TRIPOS>BOND
     1    11    12   ar
     2    12    13   ar
     3    12     1    1
     4     1     2   ar
     5     2     3   ar
     6     3     4   ar
     7     4     5   ar
     8     5     6    1
     9     5     7   ar
    10     7     8   ar
    11     8    14    1
    12    14    16    1
    13    16    17    1
    14    17    18    1
    15    18    19    1
    16    19    20    1
    17    20    21    1
    18    21    22    1
    19     8     9   ar
    20     9    10   ar
    21    10     1   ar
    22     9     3   ar
    23    22    17    1
    24    14    15    1
    25    20    23    1
@<TRIPOS>MOLECULE
*****
 23 25 0 0 0
SMALL
GASTEIGER

@<TRIPOS>ATOM
      1 C          62.8128   85.9718   12.2575 C.ar    1  UNL1        0.1593
      2 C          62.0107   85.4831   11.0879 C.ar    1  UNL1        0.0418
      3 C          61.4411   86.6790   10.3842 C.ar    1  UNL1        0.0394
      4 C          60.5707   86.8085    9.1695 C.ar    1  UNL1        0.0099
      5 C          60.1503   88.1660    8.6893 C.ar    1  UNL1        0.0360
      6 BR         59.2800   88.2955    7.4745 Br      1  UNL1       -0.0490
      7 C          60.6003   89.3940    9.4239 C.ar    1  UNL1        0.0241
      8 C          61.4707   89.2644   10.6387 C.ar    1  UNL1        0.0802
      9 C          61.8910   87.9070   11.1189 C.ar    1  UNL1        0.1583
     10 O          62.7388   87.4699   12.2766 O.2     1  UNL1       -0.4511
     11 O          64.3763   83.9554   12.7467 O.co2   1  UNL1       -0.5415
     12 C          63.5580   85.1133   13.2360 C.2     1  UNL1        0.1076
     13 O          63.4849   85.4127   14.7040 O.co2   1  UNL1       -0.5415
     14 N          61.9206   90.4924   11.3734 N.pl3   1  UNL1       -0.3302
     15 H          61.2760   91.0102   11.9077 H       1  UNL1        0.1469
     16 C          63.3528   90.9313   11.2939 C.3     1  UNL1        0.0871
     17 C          64.0967   91.2937   12.5450 C.3     1  UNL1        0.0223
     18 C          63.7193   90.6614   13.8518 C.3     1  UNL1        0.0188
     19 C          64.4631   91.0238   15.1029 C.3     1  UNL1        0.0686
     20 N          65.5843   92.0187   15.0473 N.3     1  UNL1       -0.2975
     21 C          65.9618   92.6511   13.7405 C.3     1  UNL1        0.0686
     22 C          65.2179   92.2886   12.4893 C.3     1  UNL1        0.0188
     23 H          66.4170   91.5437   15.3959 H       1  UNL1        0.1232
@<TRIPOS>UNITY_ATOM_ATTR
11 1
charge -1
@<TRIPOS>BOND
     1    11    12   ar
     2    12    13   ar
     3    12     1    1
     4     1     2   ar
     5     2     3   ar
     6     3     4   ar
     7     4     5   ar
     8     5     6    1
     9     5     7   ar
    10     7     8   ar
    11     8    14    1
    12    14    16    1
    13    16    17    1
    14    17    18    1
    15    18    19    1
    16    19    20    1
    17    20    21    1
    18    21    22    1
    19     8     9   ar
    20     9    10   ar
    21    10     1   ar
    22     9     3   ar
    23    22    17    1
    24    14    15    1
    25    20    23    1
@<TRIPOS>MOLECULE
*****
 23 25 0 0 0
SMALL
GASTEIGER

@<TRIPOS>ATOM
      1 C          63.7698   89.4463   14.7248 C.ar    1  UNL1        0.1593
      2 C          64.8548   90.4754   14.6073 C.ar    1  UNL1        0.0418
      3 C          64.7491   91.1077   13.2511 C.ar    1  UNL1        0.0394
      4 C          65.5517   92.1821   12.5793 C.ar    1  UNL1        0.0099
      5 C          65.2039   92.6183   11.1869 C.ar    1  UNL1        0.0360
      6 BR         66.0065   93.6928   10.5151 Br      1  UNL1       -0.0490
      7 C          64.0536   91.9800   10.4662 C.ar    1  UNL1        0.0241
      8 C          63.2510   90.9054   11.1381 C.ar    1  UNL1        0.0802
      9 C          63.5988   90.4693   12.5305 C.ar    1  UNL1        0.1583
     10 O          62.9936   89.4426   13.4413 O.2     1  UNL1       -0.4511
     11 O          63.1660   89.1942   17.2391 O.co2   1  UNL1       -0.5415
     12 C          63.5072   88.5741   15.9166 C.2     1  UNL1        0.1076
     13 O          63.5858   87.0820   15.7858 O.co2   1  UNL1       -0.5415
     14 N          62.1007   90.2671   10.4175 N.pl3   1  UNL1       -0.3302
     15 H          61.3570   90.8219   10.0886 H       1  UNL1        0.1469
     16 C          62.0837   88.7833   10.1979 C.3     1  UNL1        0.0871
     17 C          61.0969   88.1775    9.2444 C.3     1  UNL1        0.0223
     18 C          60.0925   89.0490    8.5504 C.3     1  UNL1        0.0188
     19 C          59.1057   88.4432    7.5968 C.3     1  UNL1        0.0686
     20 N          59.1233   86.9660    7.3372 N.3     1  UNL1       -0.2975
     21 C          60.1278   86.0944    8.0312 C.3     1  UNL1        0.0686
     22 C          61.1146   86.7002    8.9848 C.3     1  UNL1        0.0188
     23 H          59.2708   86.8449    6.3352 H       1  UNL1        0.1232
@<TRIPOS>UNITY_ATOM_ATTR
11 1
charge -1
@<TRIPOS>BOND
     1    11    12   ar
     2    12    13   ar
     3    12     1    1
     4     1     2   ar
     5     2     3   ar
     6     3     4   ar
     7     4     5   ar
     8     5     6    1
     9     5     7   ar
    10     7     8   ar
    11     8    14    1
    12    14    16    1
    13    16    17    1
    14    17    18    1
    15    18    19    1
    16    19    20    1
    17    20    21    1
    18    21    22    1
    19     8     9   ar
    20     9    10   ar
    21    10     1   ar
    22     9     3   ar
    23    22    17    1
    24    14    15    1
    25    20    23    1
@<TRIPOS>MOLECULE
*****
 23 25 0 0 0
SMALL
GASTEIGER

@<TRIPOS>ATOM
      1 C          60.1634   88.2949   10.8112 C.ar    1  UNL1        0.1593
      2 C          59.8494   88.0554    9.3641 C.ar    1  UNL1        0.0418
      3 C          60.7185   86.9324    8.8808 C.ar    1  UNL1        0.0394
      4 C          60.8448   86.2651    7.5434 C.ar    1  UNL1        0.0099
      5 C          61.8224   85.1432    7.3543 C.ar    1  UNL1        0.0360
      6 BR         61.9486   84.4759    6.0169 Br      1  UNL1       -0.0490
      7 C          62.6736   84.6886    8.5027 C.ar    1  UNL1        0.0241
      8 C          62.5473   85.3560    9.8401 C.ar    1  UNL1        0.0802
      9 C          61.5697   86.4779   10.0291 C.ar    1  UNL1        0.1583
     10 O          61.2267   87.3199   11.2222 O.2     1  UNL1       -0.4511
     11 O          59.0332   88.9484   13.0574 O.co2   1  UNL1       -0.5415
     12 C          59.5261   89.3279   11.6925 C.2     1  UNL1        0.1076
     13 O          59.3817   90.7404   11.2089 O.co2   1  UNL1       -0.5415
     14 N          63.3985   84.9014   10.9885 N.pl3   1  UNL1       -0.3302
     15 H          63.7491   85.5590   11.6319 H       1  UNL1        0.1469
     16 C          63.7155   83.4449   11.1566 C.3     1  UNL1        0.0871
     17 C          63.1454   82.6822   12.3157 C.3     1  UNL1        0.0223
     18 C          62.8028   83.3978   13.5887 C.3     1  UNL1        0.0188
     19 C          62.2327   82.6352   14.7477 C.3     1  UNL1        0.0686
     20 N          62.0053   81.1570   14.6338 N.3     1  UNL1       -0.2975
     21 C          62.3480   80.4413   13.3608 C.3     1  UNL1        0.0686
     22 C          62.9180   81.2039   12.2018 C.3     1  UNL1        0.0188
     23 H          61.0121   80.9979   14.8028 H       1  UNL1        0.1232
@<TRIPOS>UNITY_ATOM_ATTR
11 1
charge -1
@<TRIPOS>BOND
     1    11    12   ar
     2    12    13   ar
     3    12     1    1
     4     1     2   ar
     5     2     3   ar
     6     3     4   ar
     7     4     5   ar
     8     5     6    1
     9     5     7   ar
    10     7     8   ar
    11     8    14    1
    12    14    16    1
    13    16    17    1
    14    17    18    1
    15    18    19    1
    16    19    20    1
    17    20    21    1
    18    21    22    1
    19     8     9   ar
    20     9    10   ar
    21    10     1   ar
    22     9     3   ar
    23    22    17    1
    24    14    15    1
    25    20    23    1
@<TRIPOS>MOLECULE
*****
 23 25 0 0 0
SMALL
GASTEIGER

@<TRIPOS>ATOM
      1 C          63.3049   84.1780   13.0143 C.ar    1  UNL1        0.1593
      2 C          62.4833   84.3976   11.7787 C.ar    1  UNL1        0.0418
      3 C          62.3897   85.8757   11.5409 C.ar    1  UNL1        0.0394
      4 C          61.7077   86.6794   10.4737 C.ar    1  UNL1        0.0099
      5 C          61.7894   88.1771   10.4952 C.ar    1  UNL1        0.0360
      6 BR         61.1074   88.9807    9.4280 Br      1  UNL1       -0.0490
      7 C          62.5531   88.8710   11.5839 C.ar    1  UNL1        0.0241
      8 C          63.2351   88.0672   12.6511 C.ar    1  UNL1        0.0802
      9 C          63.1534   86.5696   12.6296 C.ar    1  UNL1        0.1583
     10 O          63.7190   85.5204   13.5402 O.2     1  UNL1       -0.4511
     11 O          64.0137   81.6945   12.7320 O.co2   1  UNL1       -0.5415
     12 C          63.6515   82.8493   13.6181 C.2     1  UNL1        0.1076
     13 O          63.6359   82.6755   15.1078 O.co2   1  UNL1       -0.5415
     14 N          63.9988   88.7611   13.7398 N.pl3   1  UNL1       -0.3302
     15 H          64.6194   88.2503   14.3083 H       1  UNL1        0.1469
     16 C          63.8170   90.2334   13.9623 C.3     1  UNL1        0.0871
     17 C          64.8826   91.1950   13.5267 C.3     1  UNL1        0.0223
     18 C          66.0832   91.4277   14.3952 C.3     1  UNL1        0.0188
     19 C          67.1489   92.3893   13.9596 C.3     1  UNL1        0.0686
     20 N          67.0139   93.1182   12.6556 N.3     1  UNL1       -0.2975
     21 C          65.8132   92.8854   11.7870 C.3     1  UNL1        0.0686
     22 C          64.7476   91.9238   12.2226 C.3     1  UNL1        0.0188
     23 H          67.8325   92.8766   12.0971 H       1  UNL1        0.1232
@<TRIPOS>UNITY_ATOM_ATTR
11 1
charge -1
@<TRIPOS>BOND
     1    11    12   ar
     2    12    13   ar
     3    12     1    1
     4     1     2   ar
     5     2     3   ar
     6     3     4   ar
     7     4     5   ar
     8     5     6    1
     9     5     7   ar
    10     7     8   ar
    11     8    14    1
    12    14    16    1
    13    16    17    1
    14    17    18    1
    15    18    19    1
    16    19    20    1
    17    20    21    1
    18    21    22    1
    19     8     9   ar
    20     9    10   ar
    21    10     1   ar
    22     9     3   ar
    23    22    17    1
    24    14    15    1
    25    20    23    1
@<TRIPOS>MOLECULE
*****
 23 25 0 0 0
SMALL
GASTEIGER

@<TRIPOS>ATOM
      1 C          64.6322   90.9180   13.4232 C.ar    1  UNL1        0.1593
      2 C          63.8133   91.5220   12.3212 C.ar    1  UNL1        0.0418
      3 C          63.0263   90.4222   11.6722 C.ar    1  UNL1        0.0394
      4 C          62.0499   90.4238   10.5336 C.ar    1  UNL1        0.0099
      5 C          61.4060   89.1416   10.0959 C.ar    1  UNL1        0.0360
      6 BR         60.4295   89.1433    8.9573 Br      1  UNL1       -0.0490
      7 C          61.7386   87.8579   10.7968 C.ar    1  UNL1        0.0241
      8 C          62.7151   87.8563   11.9355 C.ar    1  UNL1        0.0802
      9 C          63.3590   89.1384   12.3732 C.ar    1  UNL1        0.1583
     10 O          64.3515   89.4448   13.4553 O.2     1  UNL1       -0.4511
     11 O          67.0254   91.7534   13.9930 O.co2   1  UNL1       -0.5415
     12 C          65.5677   91.6573   14.3333 C.2     1  UNL1        0.1076
     13 O          65.0455   92.3004   15.5838 O.co2   1  UNL1       -0.5415
     14 N          63.0478   86.5725   12.6364 N.pl3   1  UNL1       -0.3302
     15 H          63.4826   86.5921   13.5194 H       1  UNL1        0.1469
     16 C          62.7179   85.2588   11.9918 C.3     1  UNL1        0.0871
     17 C          62.6308   84.0151   12.8259 C.3     1  UNL1        0.0223
     18 C          62.5736   82.6704   12.1637 C.3     1  UNL1        0.0188
     19 C          62.4865   81.4267   12.9978 C.3     1  UNL1        0.0686
     20 N          62.4566   81.5277   14.4940 N.3     1  UNL1       -0.2975
     21 C          62.5138   82.8724   15.1563 C.3     1  UNL1        0.0686
     22 C          62.6009   84.1161   14.3223 C.3     1  UNL1        0.0188
     23 H          63.2538   80.9944   14.8411 H       1  UNL1        0.1232
@<TRIPOS>UNITY_ATOM_ATTR
11 1
charge -1
@<TRIPOS>BOND
     1    11    12   ar
     2    12    13   ar
     3    12     1    1
     4     1     2   ar
     5     2     3   ar
     6     3     4   ar
     7     4     5   ar
     8     5     6    1
     9     5     7   ar
    10     7     8   ar
    11     8    14    1
    12    14    16    1
    13    16    17    1
    14    17    18    1
    15    18    19    1
    16    19    20    1
    17    20    21    1
    18    21    22    1
    19     8     9   ar
    20     9    10   ar
    21    10     1   ar
    22     9     3   ar
    23    22    17    1
    24    14    15    1
    25    20    23    1
@<TRIPOS>MOLECULE
*****
 23 25 0 0 0
SMALL
GASTEIGER

@<TRIPOS>ATOM
      1 C          60.1453   88.1054   10.9780 C.ar    1  UNL1        0.1593
      2 C          59.8480   87.9051    9.5214 C.ar    1  UNL1        0.0418
      3 C          60.7427   86.8145    9.0114 C.ar    1  UNL1        0.0394
      4 C          60.8930   86.1916    7.6552 C.ar    1  UNL1        0.0099
      5 C          61.8936   85.0948    7.4403 C.ar    1  UNL1        0.0360
      6 BR         62.0439   84.4719    6.0841 Br      1  UNL1       -0.0490
      7 C          62.7438   84.6211    8.5816 C.ar    1  UNL1        0.0241
      8 C          62.5935   85.2440    9.9379 C.ar    1  UNL1        0.0802
      9 C          61.5929   86.3407   10.1528 C.ar    1  UNL1        0.1583
     10 O          61.2237   87.1385   11.3681 O.2     1  UNL1       -0.4511
     11 O          58.8986   88.6477   13.1919 O.co2   1  UNL1       -0.5415
     12 C          59.4808   89.0982   11.8851 C.2     1  UNL1        0.1076
     13 O          59.3986   90.5416   11.4853 O.co2   1  UNL1       -0.5415
     14 N          63.4437   84.7703   11.0792 N.pl3   1  UNL1       -0.3302
     15 H          64.4197   84.8968   11.0517 H       1  UNL1        0.1469
     16 C          62.8069   84.1037   12.2626 C.3     1  UNL1        0.0871
     17 C          63.0338   84.6479   13.6419 C.3     1  UNL1        0.0223
     18 C          62.2310   84.1249   14.7960 C.3     1  UNL1        0.0188
     19 C          62.4580   84.6690   16.1752 C.3     1  UNL1        0.0686
     20 N          63.4877   85.7361   16.4005 N.3     1  UNL1       -0.2975
     21 C          64.2906   86.2592   15.2464 C.3     1  UNL1        0.0686
     22 C          64.0637   85.7151   13.8671 C.3     1  UNL1        0.0188
     23 H          64.1535   85.3645   17.0780 H       1  UNL1        0.1232
@<TRIPOS>UNITY_ATOM_ATTR
11 1
charge -1
@<TRIPOS>BOND
     1    11    12   ar
     2    12    13   ar
     3    12     1    1
     4     1     2   ar
     5     2     3   ar
     6     3     4   ar
     7     4     5   ar
     8     5     6    1
     9     5     7   ar
    10     7     8   ar
    11     8    14    1
    12    14    16    1
    13    16    17    1
    14    17    18    1
    15    18    19    1
    16    19    20    1
    17    20    21    1
    18    21    22    1
    19     8     9   ar
    20     9    10   ar
    21    10     1   ar
    22     9     3   ar
    23    22    17    1
    24    14    15    1
    25    20    23    1
