@<TRIPOS>MOLECULE
*****
 33 38 0 0 0
SMALL
GASTEIGER

@<TRIPOS>ATOM
      1 C          65.7221   92.5261   13.2846 C.ar    1  UNL1        0.0436
      2 C          66.3024   93.0158   14.5781 C.ar    1  UNL1        0.0142
      3 C          65.8232   92.4439   15.8793 C.ar    1  UNL1        0.0010
      4 C          64.7637   91.3821   15.8870 C.ar    1  UNL1       -0.0032
      5 C          64.1833   90.8924   14.5935 C.ar    1  UNL1       -0.0091
      6 C          64.6625   91.4643   13.2923 C.ar    1  UNL1       -0.0101
      7 C          64.0822   90.9745   11.9986 C.3     1  UNL1        0.0444
      8 C          63.0226   89.9128   12.0063 C.3     1  UNL1        0.0749
      9 N          62.5434   89.3408   13.3076 N.3     1  UNL1       -0.2934
     10 C          63.1238   89.8306   14.6011 C.3     1  UNL1        0.0954
     11 H          62.7161   88.3363   13.2691 H       1  UNL1        0.1236
     12 C          66.0679   96.8512    8.7442 C.3     1  UNL1        0.0896
     13 N          66.7166   95.5114    8.9285 N.3     1  UNL1       -0.2711
     14 C          67.6761   94.8581    7.9784 C.3     1  UNL1        0.0722
     15 C          68.0722   93.5326    8.5580 C.3     1  UNL1        0.0204
     16 C          67.3576   93.3666    9.8663 C.3     1  UNL1        0.0375
     17 C          67.1607   92.4448   11.0331 C.3     1  UNL1        0.0922
     18 N          66.2013   93.0980   11.9833 N.pl3   1  UNL1       -0.3063
     19 C          65.8052   94.4236   11.4037 C.3     1  UNL1        0.1067
     20 C          66.5198   94.5896   10.0953 C.3     1  UNL1        0.0790
     21 C          62.4423   89.4230   10.7128 C.3     1  UNL1        0.0886
     22 N          61.5857   88.1917   10.6936 N.3     1  UNL1       -0.2667
     23 C          60.1729   88.2531   11.1938 C.3     1  UNL1        0.0899
     24 C          62.1420   86.8992   10.1742 C.3     1  UNL1        0.0978
     25 C          62.1021   86.6023    8.7043 C.3     1  UNL1        0.0224
     26 C          62.6584   85.3097    8.1849 C.3     1  UNL1        0.0065
     27 C          63.2545   84.3140    9.1353 C.3     1  UNL1        0.0277
     28 C          63.2944   84.6109   10.6050 C.ar    1  UNL1       -0.0073
     29 C          63.8905   83.6151   11.5554 C.ar    1  UNL1       -0.0015
     30 C          63.9304   83.9120   13.0252 C.ar    1  UNL1        0.0203
     31 C          63.3741   85.2046   13.5446 C.ar    1  UNL1        0.0985
     32 N          62.7780   86.2003   12.5943 N.ar    1  UNL1       -0.2471
     33 C          62.7381   85.9035   11.1245 C.ar    1  UNL1        0.0695
@<TRIPOS>BOND
     1    12    13    1
     2    13    14    1
     3    14    15    1
     4    16    15    1
     5    16    17    1
     6    17    18    1
     7    18     1    1
     8     1     2   ar
     9     2     3   ar
    10     3     4   ar
    11     4     5   ar
    12     5     6   ar
    13     6     7    1
    14     7     8    1
    15     8    21    1
    16    21    22    1
    17    22    23    1
    18    24    22    1
    19    24    25    1
    20    25    26    1
    21    26    27    1
    22    27    28    1
    23    28    29   ar
    24    29    30   ar
    25    30    31   ar
    26    31    32   ar
    27    32    33   ar
    28     8     9    1
    29     9    10    1
    30    18    19    1
    31    20    19    1
    32    20    13    1
    33    20    16    1
    34     6     1   ar
    35    33    24    1
    36    10     5    1
    37    33    28   ar
    38     9    11    1
@<TRIPOS>MOLECULE
*****
 33 38 0 0 0
SMALL
GASTEIGER

@<TRIPOS>ATOM
      1 C          65.3730   91.3197   14.5949 C.ar    1  UNL1        0.0436
      2 C          66.3668   92.0465   15.4517 C.ar    1  UNL1        0.0142
      3 C          67.0715   93.2587   14.9190 C.ar    1  UNL1        0.0010
      4 C          66.7825   93.7441   13.5294 C.ar    1  UNL1       -0.0032
      5 C          65.7887   93.0173   12.6726 C.ar    1  UNL1       -0.0091
      6 C          65.0840   91.8051   13.2054 C.ar    1  UNL1       -0.0101
      7 C          64.0901   91.0783   12.3486 C.3     1  UNL1        0.0444
      8 C          63.8011   91.5636   10.9590 C.3     1  UNL1        0.0749
      9 N          64.5059   92.7759   10.4263 N.3     1  UNL1       -0.2934
     10 C          65.4997   93.5027   11.2831 C.3     1  UNL1        0.0954
     11 H          63.7831   93.4509   10.1767 H       1  UNL1        0.1236
     12 C          63.8383   85.2320   14.7572 C.3     1  UNL1        0.0896
     13 N          63.4386   86.4078   15.5985 N.3     1  UNL1       -0.2711
     14 C          62.4990   86.3768   16.7674 C.3     1  UNL1        0.0722
     15 C          62.3879   87.7708   17.3099 C.3     1  UNL1        0.0204
     16 C          63.2589   88.6633   16.4764 C.3     1  UNL1        0.0375
     17 C          63.7285   90.0765   16.2965 C.3     1  UNL1        0.0922
     18 N          64.6682   90.1075   15.1277 N.pl3   1  UNL1       -0.3063
     19 C          64.7792   88.7135   14.5851 C.3     1  UNL1        0.1067
     20 C          63.9083   87.8209   15.4187 C.3     1  UNL1        0.0790
     21 C          62.8074   90.8369   10.1022 C.3     1  UNL1        0.0886
     22 N          61.7281   90.0130   10.7398 N.3     1  UNL1       -0.2667
     23 C          60.6836   90.6738   11.5899 C.3     1  UNL1        0.0899
     24 C          61.6933   88.5286   10.5274 C.3     1  UNL1        0.0978
     25 C          62.4763   87.6230   11.4312 C.3     1  UNL1        0.0224
     26 C          62.4415   86.1386   11.2188 C.3     1  UNL1        0.0065
     27 C          61.6237   85.5596   10.1025 C.3     1  UNL1        0.0277
     28 C          60.8407   86.4652    9.1987 C.ar    1  UNL1       -0.0073
     29 C          60.0229   85.8862    8.0824 C.ar    1  UNL1       -0.0015
     30 C          59.2399   86.7918    7.1785 C.ar    1  UNL1        0.0203
     31 C          59.2747   88.2763    7.3910 C.ar    1  UNL1        0.0985
     32 N          60.0925   88.8552    8.5073 N.ar    1  UNL1       -0.2471
     33 C          60.8755   87.9497    9.4111 C.ar    1  UNL1        0.0695
@<TRIPOS>BOND
     1    12    13    1
     2    13    14    1
     3    14    15    1
     4    16    15    1
     5    16    17    1
     6    17    18    1
     7    18     1    1
     8     1     2   ar
     9     2     3   ar
    10     3     4   ar
    11     4     5   ar
    12     5     6   ar
    13     6     7    1
    14     7     8    1
    15     8    21    1
    16    21    22    1
    17    22    23    1
    18    24    22    1
    19    24    25    1
    20    25    26    1
    21    26    27    1
    22    27    28    1
    23    28    29   ar
    24    29    30   ar
    25    30    31   ar
    26    31    32   ar
    27    32    33   ar
    28     8     9    1
    29     9    10    1
    30    18    19    1
    31    20    19    1
    32    20    13    1
    33    20    16    1
    34     6     1   ar
    35    33    24    1
    36    10     5    1
    37    33    28   ar
    38     9    11    1
@<TRIPOS>MOLECULE
*****
 33 38 0 0 0
SMALL
GASTEIGER

@<TRIPOS>ATOM
      1 C          61.1601   86.5414    9.4103 C.ar    1  UNL1        0.0436
      2 C          60.5024   86.1943    8.1077 C.ar    1  UNL1        0.0142
      3 C          59.6674   87.2155    7.3936 C.ar    1  UNL1        0.0010
      4 C          59.4901   88.5837    7.9822 C.ar    1  UNL1       -0.0032
      5 C          60.1478   88.9308    9.2848 C.ar    1  UNL1       -0.0091
      6 C          60.9828   87.9096    9.9989 C.ar    1  UNL1       -0.0101
      7 C          61.6406   88.2567   11.3016 C.3     1  UNL1        0.0444
      8 C          61.4633   89.6250   11.8901 C.3     1  UNL1        0.0749
      9 N          60.6283   90.6462   11.1760 N.3     1  UNL1       -0.2934
     10 C          59.9705   90.2991    9.8734 C.3     1  UNL1        0.0954
     11 H          61.2331   91.4475   10.9961 H       1  UNL1        0.1236
     12 C          63.1118   83.2487   14.3894 C.3     1  UNL1        0.0896
     13 N          63.5133   83.2472   12.9441 N.3     1  UNL1       -0.2711
     14 C          64.5651   82.3773   12.3221 C.3     1  UNL1        0.0722
     15 C          64.6353   82.7078   10.8607 C.3     1  UNL1        0.0204
     16 C          63.6269   83.7820   10.5794 C.3     1  UNL1        0.0375
     17 C          63.0470   84.6502    9.5024 C.3     1  UNL1        0.0922
     18 N          61.9951   85.5202   10.1244 N.pl3   1  UNL1       -0.3063
     19 C          61.9249   85.1896   11.5858 C.3     1  UNL1        0.1067
     20 C          62.9334   84.1154   11.8671 C.3     1  UNL1        0.0790
     21 C          62.1210   89.9721   13.1928 C.3     1  UNL1        0.0886
     22 N          63.6169   89.9632   13.3035 N.3     1  UNL1       -0.2667
     23 C          64.3137   88.8071   13.9577 C.3     1  UNL1        0.0899
     24 C          64.4160   91.1104   12.7599 C.3     1  UNL1        0.0978
     25 C          64.3145   91.4739   11.3081 C.3     1  UNL1        0.0224
     26 C          65.1136   92.6210   10.7646 C.3     1  UNL1        0.0065
     27 C          66.0141   93.4048   11.6728 C.3     1  UNL1        0.0277
     28 C          66.1156   93.0413   13.1245 C.ar    1  UNL1       -0.0073
     29 C          67.0161   93.8250   14.0327 C.ar    1  UNL1       -0.0015
     30 C          67.1175   93.4615   15.4845 C.ar    1  UNL1        0.0203
     31 C          66.3185   92.3144   16.0281 C.ar    1  UNL1        0.0985
     32 N          65.4180   91.5307   15.1199 N.ar    1  UNL1       -0.2471
     33 C          65.3165   91.8941   13.6681 C.ar    1  UNL1        0.0695
@<TRIPOS>BOND
     1    12    13    1
     2    13    14    1
     3    14    15    1
     4    16    15    1
     5    16    17    1
     6    17    18    1
     7    18     1    1
     8     1     2   ar
     9     2     3   ar
    10     3     4   ar
    11     4     5   ar
    12     5     6   ar
    13     6     7    1
    14     7     8    1
    15     8    21    1
    16    21    22    1
    17    22    23    1
    18    24    22    1
    19    24    25    1
    20    25    26    1
    21    26    27    1
    22    27    28    1
    23    28    29   ar
    24    29    30   ar
    25    30    31   ar
    26    31    32   ar
    27    32    33   ar
    28     8     9    1
    29     9    10    1
    30    18    19    1
    31    20    19    1
    32    20    13    1
    33    20    16    1
    34     6     1   ar
    35    33    24    1
    36    10     5    1
    37    33    28   ar
    38     9    11    1
@<TRIPOS>MOLECULE
*****
 33 38 0 0 0
SMALL
GASTEIGER

@<TRIPOS>ATOM
      1 C          64.7520   90.6080   13.9111 C.ar    1  UNL1        0.0436
      2 C          65.8488   91.5092   14.3956 C.ar    1  UNL1        0.0142
      3 C          66.3537   92.6153   13.5171 C.ar    1  UNL1        0.0010
      4 C          65.7618   92.8201   12.1542 C.ar    1  UNL1       -0.0032
      5 C          64.6650   91.9189   11.6696 C.ar    1  UNL1       -0.0091
      6 C          64.1601   90.8129   12.5481 C.ar    1  UNL1       -0.0101
      7 C          63.0632   89.9116   12.0636 C.3     1  UNL1        0.0444
      8 C          62.4713   90.1164   10.7006 C.3     1  UNL1        0.0749
      9 N          62.9763   91.2226    9.8221 N.3     1  UNL1       -0.2934
     10 C          64.0731   92.1238   10.3067 C.3     1  UNL1        0.0954
     11 H          62.1765   91.8194    9.6111 H       1  UNL1        0.1236
     12 C          64.0489   84.6336   15.7148 C.3     1  UNL1        0.0896
     13 N          63.5483   85.9332   16.2719 N.3     1  UNL1       -0.2711
     14 C          62.6929   86.0979   17.4931 C.3     1  UNL1        0.0722
     15 C          62.4311   87.5628   17.6816 C.3     1  UNL1        0.0204
     16 C          63.1247   88.3035   16.5769 C.3     1  UNL1        0.0375
     17 C          63.3916   89.6666   16.0107 C.3     1  UNL1        0.0922
     18 N          64.2470   89.5019   14.7895 N.pl3   1  UNL1       -0.3063
     19 C          64.5088   88.0370   14.6010 C.3     1  UNL1        0.1067
     20 C          63.8152   87.2963   15.7057 C.3     1  UNL1        0.0790
     21 C          61.3745   89.2153   10.2161 C.3     1  UNL1        0.0886
     22 N          61.2298   87.8359   10.7874 N.3     1  UNL1       -0.2667
     23 C          60.3664   87.6103   11.9931 C.3     1  UNL1        0.0899
     24 C          61.9484   86.6822   10.1530 C.3     1  UNL1        0.0978
     25 C          62.2507   86.7031    8.6839 C.3     1  UNL1        0.0224
     26 C          62.9693   85.5494    8.0495 C.3     1  UNL1        0.0065
     27 C          63.3856   84.3747    8.8842 C.3     1  UNL1        0.0277
     28 C          63.0833   84.3536   10.3532 C.ar    1  UNL1       -0.0073
     29 C          63.4996   83.1789   11.1879 C.ar    1  UNL1       -0.0015
     30 C          63.1973   83.1579   12.6570 C.ar    1  UNL1        0.0203
     31 C          62.4787   84.3117   13.2914 C.ar    1  UNL1        0.0985
     32 N          62.0624   85.4864   12.4567 N.ar    1  UNL1       -0.2471
     33 C          62.3647   85.5074   10.9877 C.ar    1  UNL1        0.0695
@<TRIPOS>BOND
     1    12    13    1
     2    13    14    1
     3    14    15    1
     4    16    15    1
     5    16    17    1
     6    17    18    1
     7    18     1    1
     8     1     2   ar
     9     2     3   ar
    10     3     4   ar
    11     4     5   ar
    12     5     6   ar
    13     6     7    1
    14     7     8    1
    15     8    21    1
    16    21    22    1
    17    22    23    1
    18    24    22    1
    19    24    25    1
    20    25    26    1
    21    26    27    1
    22    27    28    1
    23    28    29   ar
    24    29    30   ar
    25    30    31   ar
    26    31    32   ar
    27    32    33   ar
    28     8     9    1
    29     9    10    1
    30    18    19    1
    31    20    19    1
    32    20    13    1
    33    20    16    1
    34     6     1   ar
    35    33    24    1
    36    10     5    1
    37    33    28   ar
    38     9    11    1
@<TRIPOS>MOLECULE
*****
 33 38 0 0 0
SMALL
GASTEIGER

@<TRIPOS>ATOM
      1 C          61.2869   86.6348    9.6557 C.ar    1  UNL1        0.0436
      2 C          60.6641   86.3210    8.3277 C.ar    1  UNL1        0.0142
      3 C          59.8889   87.3756    7.5950 C.ar    1  UNL1        0.0010
      4 C          59.7365   88.7440    8.1904 C.ar    1  UNL1       -0.0032
      5 C          60.3593   89.0577    9.5184 C.ar    1  UNL1       -0.0091
      6 C          61.1346   88.0031   10.2510 C.ar    1  UNL1       -0.0101
      7 C          61.7575   88.3168   11.5791 C.3     1  UNL1        0.0444
      8 C          61.6051   89.6851   12.1744 C.3     1  UNL1        0.0749
      9 N          60.8298   90.7398   11.4417 N.3     1  UNL1       -0.2934
     10 C          60.2070   90.4260   10.1137 C.3     1  UNL1        0.0954
     11 H          61.4668   91.5219   11.2907 H       1  UNL1        0.1236
     12 C          63.1162   83.3850   14.7089 C.3     1  UNL1        0.0896
     13 N          63.4796   83.3021   13.2559 N.3     1  UNL1       -0.2711
     14 C          64.4482   82.3344   12.6432 C.3     1  UNL1        0.0722
     15 C          64.5054   82.6065   11.1692 C.3     1  UNL1        0.0204
     16 C          63.5722   83.7423   10.8709 C.3     1  UNL1        0.0375
     17 C          63.0308   84.6124    9.7757 C.3     1  UNL1        0.0922
     18 N          62.0622   85.5801   10.3884 N.pl3   1  UNL1       -0.3063
     19 C          62.0050   85.3080   11.8624 C.3     1  UNL1        0.1067
     20 C          62.9382   84.1722   12.1606 C.3     1  UNL1        0.0790
     21 C          62.2279   89.9989   13.5024 C.3     1  UNL1        0.0886
     22 N          63.6931   89.7611   13.7185 N.3     1  UNL1       -0.2667
     23 C          64.2403   88.3650   13.6782 C.3     1  UNL1        0.0899
     24 C          64.6111   90.9193   13.9751 C.3     1  UNL1        0.0978
     25 C          65.1474   91.1599   15.3551 C.3     1  UNL1        0.0224
     26 C          66.0654   92.3181   15.6116 C.3     1  UNL1        0.0065
     27 C          66.4471   93.2357   14.4881 C.3     1  UNL1        0.0277
     28 C          65.9108   92.9952   13.1081 C.ar    1  UNL1       -0.0073
     29 C          66.2925   93.9128   11.9846 C.ar    1  UNL1       -0.0015
     30 C          65.7561   93.6722   10.6045 C.ar    1  UNL1        0.0203
     31 C          64.8382   92.5140   10.3480 C.ar    1  UNL1        0.0985
     32 N          64.4565   91.5963   11.4715 N.ar    1  UNL1       -0.2471
     33 C          64.9928   91.8369   12.8515 C.ar    1  UNL1        0.0695
@<TRIPOS>BOND
     1    12    13    1
     2    13    14    1
     3    14    15    1
     4    16    15    1
     5    16    17    1
     6    17    18    1
     7    18     1    1
     8     1     2   ar
     9     2     3   ar
    10     3     4   ar
    11     4     5   ar
    12     5     6   ar
    13     6     7    1
    14     7     8    1
    15     8    21    1
    16    21    22    1
    17    22    23    1
    18    24    22    1
    19    24    25    1
    20    25    26    1
    21    26    27    1
    22    27    28    1
    23    28    29   ar
    24    29    30   ar
    25    30    31   ar
    26    31    32   ar
    27    32    33   ar
    28     8     9    1
    29     9    10    1
    30    18    19    1
    31    20    19    1
    32    20    13    1
    33    20    16    1
    34     6     1   ar
    35    33    24    1
    36    10     5    1
    37    33    28   ar
    38     9    11    1
@<TRIPOS>MOLECULE
*****
 33 38 0 0 0
SMALL
GASTEIGER

@<TRIPOS>ATOM
      1 C          62.5470   84.5204   11.7850 C.ar    1  UNL1        0.0436
      2 C          62.3270   83.0873   11.4008 C.ar    1  UNL1        0.0142
      3 C          62.9708   81.9904   12.1958 C.ar    1  UNL1        0.0010
      4 C          63.8346   82.3266   13.3751 C.ar    1  UNL1       -0.0032
      5 C          64.0547   83.7597   13.7594 C.ar    1  UNL1       -0.0091
      6 C          63.4108   84.8566   12.9643 C.ar    1  UNL1       -0.0101
      7 C          63.6308   86.2899   13.3486 C.3     1  UNL1        0.0444
      8 C          64.4947   86.6260   14.5279 C.3     1  UNL1        0.0749
      9 N          65.1385   85.5290   15.3229 N.3     1  UNL1       -0.2934
     10 C          64.9185   84.0959   14.9387 C.3     1  UNL1        0.0954
     11 H          64.8105   85.6300   16.2835 H       1  UNL1        0.1236
     12 C          59.6704   90.0459   10.9873 C.3     1  UNL1        0.0896
     13 N          60.1021   88.9731   10.0319 N.3     1  UNL1       -0.2711
     14 C          59.9217   88.9936    8.5430 C.3     1  UNL1        0.0722
     15 C          60.4981   87.7246    7.9887 C.3     1  UNL1        0.0204
     16 C          61.0348   86.9197    9.1350 C.3     1  UNL1        0.0375
     17 C          61.7227   85.6380    9.5010 C.3     1  UNL1        0.0922
     18 N          61.9031   85.6175   10.9900 N.pl3   1  UNL1       -0.3063
     19 C          61.3267   86.8865   11.5443 C.3     1  UNL1        0.1067
     20 C          60.7900   87.6914   10.3979 C.3     1  UNL1        0.0790
     21 C          64.7147   88.0592   14.9121 C.3     1  UNL1        0.0886
     22 N          63.6780   89.0918   14.5820 N.3     1  UNL1       -0.2667
     23 C          62.4559   89.2289   15.4409 C.3     1  UNL1        0.0899
     24 C          63.8635   89.9874   13.3931 C.3     1  UNL1        0.0978
     25 C          63.1513   89.6850   12.1080 C.3     1  UNL1        0.0224
     26 C          63.3367   90.5805   10.9191 C.3     1  UNL1        0.0065
     27 C          64.2344   91.7785   11.0152 C.3     1  UNL1        0.0277
     28 C          64.9465   92.0809   12.3002 C.ar    1  UNL1       -0.0073
     29 C          65.8441   93.2788   12.3963 C.ar    1  UNL1       -0.0015
     30 C          66.5563   93.5812   13.6814 C.ar    1  UNL1        0.0203
     31 C          66.3709   92.6856   14.8703 C.ar    1  UNL1        0.0985
     32 N          65.4733   91.4877   14.7742 N.ar    1  UNL1       -0.2471
     33 C          64.7611   91.1853   13.4892 C.ar    1  UNL1        0.0695
@<TRIPOS>BOND
     1    12    13    1
     2    13    14    1
     3    14    15    1
     4    16    15    1
     5    16    17    1
     6    17    18    1
     7    18     1    1
     8     1     2   ar
     9     2     3   ar
    10     3     4   ar
    11     4     5   ar
    12     5     6   ar
    13     6     7    1
    14     7     8    1
    15     8    21    1
    16    21    22    1
    17    22    23    1
    18    24    22    1
    19    24    25    1
    20    25    26    1
    21    26    27    1
    22    27    28    1
    23    28    29   ar
    24    29    30   ar
    25    30    31   ar
    26    31    32   ar
    27    32    33   ar
    28     8     9    1
    29     9    10    1
    30    18    19    1
    31    20    19    1
    32    20    13    1
    33    20    16    1
    34     6     1   ar
    35    33    24    1
    36    10     5    1
    37    33    28   ar
    38     9    11    1
@<TRIPOS>MOLECULE
*****
 33 38 0 0 0
SMALL
GASTEIGER

@<TRIPOS>ATOM
      1 C          66.2360   93.1171   13.6329 C.ar    1  UNL1        0.0436
      2 C          67.0537   93.4753   14.8383 C.ar    1  UNL1        0.0142
      3 C          66.7750   92.8162   16.1565 C.ar    1  UNL1        0.0010
      4 C          65.6785   91.7988   16.2694 C.ar    1  UNL1       -0.0032
      5 C          64.8608   91.4406   15.0640 C.ar    1  UNL1       -0.0091
      6 C          65.1395   92.0997   13.7458 C.ar    1  UNL1       -0.0101
      7 C          64.3217   91.7415   12.5403 C.3     1  UNL1        0.0444
      8 C          63.2253   90.7241   12.6532 C.3     1  UNL1        0.0749
      9 N          62.9465   90.0650   13.9716 N.3     1  UNL1       -0.2934
     10 C          63.7643   90.4232   15.1769 C.3     1  UNL1        0.0954
     11 H          63.0575   89.0612   13.8282 H       1  UNL1        0.1236
     12 C          68.4047   93.3929    7.7454 C.3     1  UNL1        0.0896
     13 N          67.7188   94.3932    8.6280 N.3     1  UNL1       -0.2711
     14 C          67.3724   95.8049    8.2573 C.3     1  UNL1        0.0722
     15 C          66.6984   96.4416    9.4364 C.3     1  UNL1        0.0204
     16 C          66.6282   95.4235   10.5358 C.3     1  UNL1        0.0375
     17 C          66.1683   95.1878   11.9439 C.3     1  UNL1        0.0922
     18 N          66.5147   93.7762   12.3146 N.pl3   1  UNL1       -0.3063
     19 C          67.1887   93.1394   11.1355 C.3     1  UNL1        0.1067
     20 C          67.2589   94.1575   10.0361 C.3     1  UNL1        0.0790
     21 C          62.4075   90.3659   11.4479 C.3     1  UNL1        0.0886
     22 N          61.3148   89.3444   11.5595 N.3     1  UNL1       -0.2667
     23 C          60.0396   89.6852   12.2721 C.3     1  UNL1        0.0899
     24 C          61.4971   87.9823   10.9584 C.3     1  UNL1        0.0978
     25 C          62.3738   86.9733   11.6393 C.3     1  UNL1        0.0224
     26 C          62.5562   85.6112   11.0383 C.3     1  UNL1        0.0065
     27 C          61.8620   85.2580    9.7564 C.3     1  UNL1        0.0277
     28 C          60.9854   86.2669    9.0755 C.ar    1  UNL1       -0.0073
     29 C          60.2912   85.9136    7.7936 C.ar    1  UNL1       -0.0015
     30 C          59.4145   86.9226    7.1127 C.ar    1  UNL1        0.0203
     31 C          59.2321   88.2848    7.7137 C.ar    1  UNL1        0.0985
     32 N          59.9263   88.6380    8.9956 N.ar    1  UNL1       -0.2471
     33 C          60.8029   87.6291    9.6765 C.ar    1  UNL1        0.0695
@<TRIPOS>BOND
     1    12    13    1
     2    13    14    1
     3    14    15    1
     4    16    15    1
     5    16    17    1
     6    17    18    1
     7    18     1    1
     8     1     2   ar
     9     2     3   ar
    10     3     4   ar
    11     4     5   ar
    12     5     6   ar
    13     6     7    1
    14     7     8    1
    15     8    21    1
    16    21    22    1
    17    22    23    1
    18    24    22    1
    19    24    25    1
    20    25    26    1
    21    26    27    1
    22    27    28    1
    23    28    29   ar
    24    29    30   ar
    25    30    31   ar
    26    31    32   ar
    27    32    33   ar
    28     8     9    1
    29     9    10    1
    30    18    19    1
    31    20    19    1
    32    20    13    1
    33    20    16    1
    34     6     1   ar
    35    33    24    1
    36    10     5    1
    37    33    28   ar
    38     9    11    1
@<TRIPOS>MOLECULE
*****
 33 38 0 0 0
SMALL
GASTEIGER

@<TRIPOS>ATOM
      1 C          62.7636   90.0090   11.0900 C.ar    1  UNL1        0.0436
      2 C          61.9553   90.5120    9.9308 C.ar    1  UNL1        0.0142
      3 C          60.9983   89.5943    9.2295 C.ar    1  UNL1        0.0010
      4 C          60.8496   88.1737    9.6872 C.ar    1  UNL1       -0.0032
      5 C          61.6578   87.6707   10.8464 C.ar    1  UNL1       -0.0091
      6 C          62.6148   88.5884   11.5478 C.ar    1  UNL1       -0.0101
      7 C          63.4231   88.0854   12.7070 C.3     1  UNL1        0.0444
      8 C          63.2744   86.6647   13.1648 C.3     1  UNL1        0.0749
      9 N          62.3173   85.7470   12.4634 N.3     1  UNL1       -0.2934
     10 C          61.5091   86.2500   11.3042 C.3     1  UNL1        0.0954
     11 H          61.6535   85.4211   13.1659 H       1  UNL1        0.1236
     12 C          65.7138   92.4372   16.0742 C.3     1  UNL1        0.0896
     13 N          65.7885   92.7253   14.6040 N.3     1  UNL1       -0.2711
     14 C          66.6661   93.7511   13.9501 C.3     1  UNL1        0.0722
     15 C          66.4186   93.6980   12.4716 C.3     1  UNL1        0.0204
     16 C          65.3881   92.6395   12.2118 C.3     1  UNL1        0.0375
     17 C          64.5982   91.9525   11.1375 C.3     1  UNL1        0.0922
     18 N          63.7206   90.9267   11.7914 N.pl3   1  UNL1       -0.3063
     19 C          63.9681   90.9798   13.2699 C.3     1  UNL1        0.1067
     20 C          64.9986   92.0383   13.5297 C.3     1  UNL1        0.0790
     21 C          64.0826   86.1617   14.3240 C.3     1  UNL1        0.0886
     22 N          64.6227   84.7624   14.3107 N.3     1  UNL1       -0.2667
     23 C          66.0788   84.5180   14.5757 C.3     1  UNL1        0.0899
     24 C          63.7068   83.6076   14.0325 C.3     1  UNL1        0.0978
     25 C          62.7876   83.1040   15.1056 C.3     1  UNL1        0.0224
     26 C          61.8717   81.9491   14.8274 C.3     1  UNL1        0.0065
     27 C          61.8750   81.2978   13.4762 C.3     1  UNL1        0.0277
     28 C          62.7942   81.8014   12.4032 C.ar    1  UNL1       -0.0073
     29 C          62.7975   81.1501   11.0519 C.ar    1  UNL1       -0.0015
     30 C          63.7167   81.6537    9.9789 C.ar    1  UNL1        0.0203
     31 C          64.6326   82.8085   10.2570 C.ar    1  UNL1        0.0985
     32 N          64.6293   83.4598   11.6083 N.ar    1  UNL1       -0.2471
     33 C          63.7101   82.9563   12.6813 C.ar    1  UNL1        0.0695
@<TRIPOS>BOND
     1    12    13    1
     2    13    14    1
     3    14    15    1
     4    16    15    1
     5    16    17    1
     6    17    18    1
     7    18     1    1
     8     1     2   ar
     9     2     3   ar
    10     3     4   ar
    11     4     5   ar
    12     5     6   ar
    13     6     7    1
    14     7     8    1
    15     8    21    1
    16    21    22    1
    17    22    23    1
    18    24    22    1
    19    24    25    1
    20    25    26    1
    21    26    27    1
    22    27    28    1
    23    28    29   ar
    24    29    30   ar
    25    30    31   ar
    26    31    32   ar
    27    32    33   ar
    28     8     9    1
    29     9    10    1
    30    18    19    1
    31    20    19    1
    32    20    13    1
    33    20    16    1
    34     6     1   ar
    35    33    24    1
    36    10     5    1
    37    33    28   ar
    38     9    11    1
@<TRIPOS>MOLECULE
*****
 33 38 0 0 0
SMALL
GASTEIGER

@<TRIPOS>ATOM
      1 C          61.3183   86.5998    9.6452 C.ar    1  UNL1        0.0436
      2 C          60.4181   86.3007    8.4834 C.ar    1  UNL1        0.0142
      3 C          59.6222   87.4022    7.8484 C.ar    1  UNL1        0.0010
      4 C          59.7265   88.8027    8.3752 C.ar    1  UNL1       -0.0032
      5 C          60.6268   89.1018    9.5371 C.ar    1  UNL1       -0.0091
      6 C          61.4227   88.0004   10.1721 C.ar    1  UNL1       -0.0101
      7 C          62.3230   88.2994   11.3341 C.3     1  UNL1        0.0444
      8 C          62.4274   89.6999   11.8609 C.3     1  UNL1        0.0749
      9 N          61.6315   90.8014   11.2258 N.3     1  UNL1       -0.2934
     10 C          60.7312   90.5023   10.0640 C.3     1  UNL1        0.0954
     11 H          62.3006   91.5022   10.9071 H       1  UNL1        0.1236
     12 C          63.2803   83.0004   14.4030 C.3     1  UNL1        0.0896
     13 N          63.6081   83.0247   12.9395 N.3     1  UNL1       -0.2711
     14 C          64.5640   82.1084   12.2347 C.3     1  UNL1        0.0722
     15 C          64.5842   82.4870   10.7834 C.3     1  UNL1        0.0204
     16 C          63.6408   83.6372   10.5912 C.3     1  UNL1        0.0375
     17 C          63.0702   84.5820    9.5755 C.3     1  UNL1        0.0922
     18 N          62.1143   85.4983   10.2803 N.pl3   1  UNL1       -0.3063
     19 C          62.0941   85.1198   11.7316 C.3     1  UNL1        0.1067
     20 C          63.0375   83.9695   11.9238 C.3     1  UNL1        0.0790
     21 C          63.3277   89.9990   13.0228 C.3     1  UNL1        0.0886
     22 N          64.3136   91.1263   12.9370 N.3     1  UNL1       -0.2667
     23 C          64.5671   91.8025   11.6222 C.3     1  UNL1        0.0899
     24 C          65.0459   91.5774   14.1659 C.3     1  UNL1        0.0978
     25 C          64.2976   91.7937   15.4479 C.3     1  UNL1        0.0224
     26 C          65.0299   92.2447   16.6767 C.3     1  UNL1        0.0065
     27 C          66.5105   92.4795   16.6237 C.3     1  UNL1        0.0277
     28 C          67.2587   92.2633   15.3418 C.ar    1  UNL1       -0.0073
     29 C          68.7393   92.4981   15.2888 C.ar    1  UNL1       -0.0015
     30 C          69.4875   92.2818   14.0068 C.ar    1  UNL1        0.0203
     31 C          68.7552   91.8307   12.7779 C.ar    1  UNL1        0.0985
     32 N          67.2747   91.5959   12.8309 N.ar    1  UNL1       -0.2471
     33 C          66.5264   91.8122   14.1128 C.ar    1  UNL1        0.0695
@<TRIPOS>BOND
     1    12    13    1
     2    13    14    1
     3    14    15    1
     4    16    15    1
     5    16    17    1
     6    17    18    1
     7    18     1    1
     8     1     2   ar
     9     2     3   ar
    10     3     4   ar
    11     4     5   ar
    12     5     6   ar
    13     6     7    1
    14     7     8    1
    15     8    21    1
    16    21    22    1
    17    22    23    1
    18    24    22    1
    19    24    25    1
    20    25    26    1
    21    26    27    1
    22    27    28    1
    23    28    29   ar
    24    29    30   ar
    25    30    31   ar
    26    31    32   ar
    27    32    33   ar
    28     8     9    1
    29     9    10    1
    30    18    19    1
    31    20    19    1
    32    20    13    1
    33    20    16    1
    34     6     1   ar
    35    33    24    1
    36    10     5    1
    37    33    28   ar
    38     9    11    1
