@<TRIPOS>MOLECULE
*****
 24 27 0 0 0
SMALL
GASTEIGER

@<TRIPOS>ATOM
      1 C          64.0088   89.4140   14.5721 C.3     1  UNL1        0.0272
      2 C          64.6564   90.5548   13.8445 C.2     1  UNL1       -0.0314
      3 C          65.7669   91.3253   14.4949 C.2     1  UNL1        0.0289
      4 C          66.4145   92.4660   13.7675 C.2     1  UNL1        0.1343
      5 O          67.5250   93.2366   14.4179 O.2     1  UNL1       -0.5055
      6 C          65.9516   92.8363   12.3895 C.2     1  UNL1        0.0519
      7 C          64.8411   92.0657   11.7391 C.2     1  UNL1        0.0697
      8 N          64.1773   92.1984   10.4005 N.2     1  UNL1       -0.2475
      9 C          63.1195   91.1397   10.3008 C.2     1  UNL1        0.1013
     10 C          63.1295   90.3526   11.5777 C.2     1  UNL1        0.0814
     11 C          64.1935   90.9250   12.4666 C.3     1  UNL1        0.0888
     12 H          67.8142   93.0054   15.2787 H       1  UNL1        0.2922
     13 C          62.2328   89.1963   11.9077 C.2     1  UNL1        0.3394
     14 O          60.8186   89.4440   12.3419 O.2     1  UNL1       -0.2452
     15 O          62.7504   87.7922   11.8034 O.3     1  UNL1       -0.4456
     16 C          61.8197   86.6754   11.4344 C.3     1  UNL1        0.2087
     17 C          61.6563   86.2792    9.9969 C.3     1  UNL1        0.0445
     18 C          62.7498   85.5277    9.2972 C.3     1  UNL1        0.0210
     19 C          62.5865   85.1314    7.8597 C.3     1  UNL1        0.0722
     20 N          61.3296   85.4867    7.1220 N.3     1  UNL1       -0.2727
     21 C          60.2361   86.2381    7.8217 C.3     1  UNL1        0.0722
     22 C          60.3995   86.6344    9.2592 C.3     1  UNL1        0.0210
     23 C          61.3734   85.7253    7.9088 C.3     1  UNL1        0.0722
     24 C          61.5212   86.0835    9.2086 C.3     1  UNL1        0.0210
@<TRIPOS>BOND
     1     1     2    1
     2     2     3    2
     3     3     4    1
     4     4     5    1
     5     4     6    2
     6     6     7    1
     7     7     8    2
     8     8     9    1
     9     9    10    2
    10    10    13    1
    11    13    14    2
    12    13    15    1
    13    15    16    1
    14    16    17    1
    15    17    18    1
    16    18    19    1
    17    19    20    1
    18    20    21    1
    19    21    22    1
    20    20    23    1
    21    23    24    1
    22    10    11    1
    23    11     2    1
    24    11     7    1
    25    22    17    1
    26    24    17    1
    27     5    12    1
@<TRIPOS>MOLECULE
*****
 24 27 0 0 0
SMALL
GASTEIGER

@<TRIPOS>ATOM
      1 C          63.1889   91.2863    9.9641 C.3     1  UNL1        0.0272
      2 C          64.1632   91.7449   11.0083 C.2     1  UNL1       -0.0314
      3 C          65.0565   92.9189   10.7365 C.2     1  UNL1        0.0289
      4 C          66.0308   93.3775   11.7806 C.2     1  UNL1        0.1343
      5 O          66.9241   94.5516   11.5088 O.2     1  UNL1       -0.5055
      6 C          66.1119   92.6622   13.0967 C.2     1  UNL1        0.0519
      7 C          65.2186   91.4883   13.3684 C.2     1  UNL1        0.0697
      8 N          65.0738   90.5926   14.5629 N.2     1  UNL1       -0.2475
      9 C          64.0099   89.5805   14.2570 C.2     1  UNL1        0.1013
     10 C          63.4973   89.8505   12.8734 C.2     1  UNL1        0.0814
     11 C          64.2443   91.0296   12.3242 C.3     1  UNL1        0.0888
     12 H          66.8735   94.9984   10.6868 H       1  UNL1        0.2922
     13 C          62.4257   89.0772   12.1636 C.2     1  UNL1        0.3394
     14 O          60.9870   89.4710   12.3217 O.2     1  UNL1       -0.2452
     15 O          62.7929   87.9101   11.2958 O.3     1  UNL1       -0.4456
     16 C          61.8320   86.7710   11.1250 C.3     1  UNL1        0.2087
     17 C          61.1677   86.5424    9.7997 C.3     1  UNL1        0.0445
     18 C          61.8586   85.7300    8.7448 C.3     1  UNL1        0.0210
     19 C          61.1943   85.5013    7.4194 C.3     1  UNL1        0.0722
     20 N          59.8393   86.0852    7.1490 N.3     1  UNL1       -0.2727
     21 C          59.1485   86.8975    8.2039 C.3     1  UNL1        0.0722
     22 C          59.8127   87.1262    9.5293 C.3     1  UNL1        0.0210
     23 C          60.1635   86.2375    7.8904 C.3     1  UNL1        0.0722
     24 C          60.7641   86.4442    9.0888 C.3     1  UNL1        0.0210
@<TRIPOS>BOND
     1     1     2    1
     2     2     3    2
     3     3     4    1
     4     4     5    1
     5     4     6    2
     6     6     7    1
     7     7     8    2
     8     8     9    1
     9     9    10    2
    10    10    13    1
    11    13    14    2
    12    13    15    1
    13    15    16    1
    14    16    17    1
    15    17    18    1
    16    18    19    1
    17    19    20    1
    18    20    21    1
    19    21    22    1
    20    20    23    1
    21    23    24    1
    22    10    11    1
    23    11     2    1
    24    11     7    1
    25    22    17    1
    26    24    17    1
    27     5    12    1
@<TRIPOS>MOLECULE
*****
 24 27 0 0 0
SMALL
GASTEIGER

@<TRIPOS>ATOM
      1 C          63.9691   89.3517   14.6415 C.3     1  UNL1        0.0272
      2 C          64.6057   90.5168   13.9436 C.2     1  UNL1       -0.0314
      3 C          65.6761   91.3102   14.6327 C.2     1  UNL1        0.0289
      4 C          66.3128   92.4753   13.9349 C.2     1  UNL1        0.1343
      5 O          67.3832   93.2687   14.6240 O.2     1  UNL1       -0.5055
      6 C          65.8791   92.8472   12.5479 C.2     1  UNL1        0.0519
      7 C          64.8087   92.0538   11.8588 C.2     1  UNL1        0.0697
      8 N          64.1796   92.1824   10.5032 N.2     1  UNL1       -0.2475
      9 C          63.1541   91.0967   10.3633 C.2     1  UNL1        0.1013
     10 C          63.1494   90.2971   11.6324 C.2     1  UNL1        0.0814
     11 C          64.1720   90.8886   12.5567 C.3     1  UNL1        0.0888
     12 H          67.6541   93.0364   15.4904 H       1  UNL1        0.2922
     13 C          62.2755   89.1138   11.9256 C.2     1  UNL1        0.3394
     14 O          60.8255   89.3150   12.2526 O.2     1  UNL1       -0.2452
     15 O          62.8517   87.7292   11.8919 O.3     1  UNL1       -0.4456
     16 C          62.0625   86.6030   11.2930 C.3     1  UNL1        0.2087
     17 C          62.6298   85.2145   11.2782 C.3     1  UNL1        0.0445
     18 C          62.5819   84.3715   12.5181 C.3     1  UNL1        0.0210
     19 C          63.1491   82.9830   12.5034 C.3     1  UNL1        0.0722
     20 N          63.7643   82.4374   11.2488 N.3     1  UNL1       -0.2727
     21 C          63.8123   83.2803   10.0090 C.3     1  UNL1        0.0722
     22 C          63.2450   84.6688   10.0237 C.3     1  UNL1        0.0210
     23 C          63.4664   83.2040   11.2084 C.3     1  UNL1        0.0722
     24 C          62.9535   84.4595   11.2218 C.3     1  UNL1        0.0210
@<TRIPOS>BOND
     1     1     2    1
     2     2     3    2
     3     3     4    1
     4     4     5    1
     5     4     6    2
     6     6     7    1
     7     7     8    2
     8     8     9    1
     9     9    10    2
    10    10    13    1
    11    13    14    2
    12    13    15    1
    13    15    16    1
    14    16    17    1
    15    17    18    1
    16    18    19    1
    17    19    20    1
    18    20    21    1
    19    21    22    1
    20    20    23    1
    21    23    24    1
    22    10    11    1
    23    11     2    1
    24    11     7    1
    25    22    17    1
    26    24    17    1
    27     5    12    1
@<TRIPOS>MOLECULE
*****
 24 27 0 0 0
SMALL
GASTEIGER

@<TRIPOS>ATOM
      1 C          65.9485   91.6168   14.9881 C.3     1  UNL1        0.0272
      2 C          65.6878   92.0487   13.5755 C.2     1  UNL1       -0.0314
      3 C          66.4441   93.2058   12.9933 C.2     1  UNL1        0.0289
      4 C          66.1834   93.6377   11.5807 C.2     1  UNL1        0.1343
      5 O          66.9398   94.7949   10.9985 O.2     1  UNL1       -0.5055
      6 C          65.1663   92.9125   10.7502 C.2     1  UNL1        0.0519
      7 C          64.4099   91.7553   11.3325 C.2     1  UNL1        0.0697
      8 N          63.3556   90.8552   10.7596 N.2     1  UNL1       -0.2475
      9 C          62.9647   89.8670   11.8182 C.2     1  UNL1        0.1013
     10 C          63.7774   90.1564   13.0453 C.2     1  UNL1        0.0814
     11 C          64.6707   91.3234   12.7451 C.3     1  UNL1        0.0888
     12 H          67.5751   95.2479   11.5172 H       1  UNL1        0.2922
     13 C          63.7090   89.4097   14.3445 C.2     1  UNL1        0.3394
     14 O          62.7005   89.8026   15.3830 O.2     1  UNL1       -0.2452
     15 O          64.6490   88.2703   14.6051 O.3     1  UNL1       -0.4456
     16 C          64.1128   86.9434   15.0543 C.3     1  UNL1        0.2087
     17 C          63.9392   85.8304   14.0638 C.3     1  UNL1        0.0445
     18 C          64.6555   84.5280   14.2661 C.3     1  UNL1        0.0210
     19 C          64.4819   83.4149   13.2757 C.3     1  UNL1        0.0722
     20 N          63.5920   83.6042   12.0830 N.3     1  UNL1       -0.2727
     21 C          62.8758   84.9065   11.8808 C.3     1  UNL1        0.0722
     22 C          63.0493   86.0196   12.8712 C.3     1  UNL1        0.0210
     23 C          63.6559   84.2430   12.5986 C.3     1  UNL1        0.0722
     24 C          63.8129   85.2495   13.4941 C.3     1  UNL1        0.0210
@<TRIPOS>BOND
     1     1     2    1
     2     2     3    2
     3     3     4    1
     4     4     5    1
     5     4     6    2
     6     6     7    1
     7     7     8    2
     8     8     9    1
     9     9    10    2
    10    10    13    1
    11    13    14    2
    12    13    15    1
    13    15    16    1
    14    16    17    1
    15    17    18    1
    16    18    19    1
    17    19    20    1
    18    20    21    1
    19    21    22    1
    20    20    23    1
    21    23    24    1
    22    10    11    1
    23    11     2    1
    24    11     7    1
    25    22    17    1
    26    24    17    1
    27     5    12    1
@<TRIPOS>MOLECULE
*****
 24 27 0 0 0
SMALL
GASTEIGER

@<TRIPOS>ATOM
      1 C          62.6515   85.8170   11.8848 C.3     1  UNL1        0.0272
      2 C          62.6901   87.3106   11.7516 C.2     1  UNL1       -0.0314
      3 C          62.0608   87.9741   10.5626 C.2     1  UNL1        0.0289
      4 C          62.0994   89.4676   10.4294 C.2     1  UNL1        0.1343
      5 O          61.4700   90.1311    9.2403 O.2     1  UNL1       -0.5055
      6 C          62.7673   90.2978   11.4853 C.2     1  UNL1        0.0519
      7 C          63.3966   89.6343   12.6743 C.2     1  UNL1        0.0697
      8 N          64.1208   90.1874   13.8658 N.2     1  UNL1       -0.2475
      9 C          64.5298   89.0356   14.7353 C.2     1  UNL1        0.1013
     10 C          64.0583   87.7707   14.0813 C.2     1  UNL1        0.0814
     11 C          63.3580   88.1407   12.8075 C.3     1  UNL1        0.0888
     12 H          61.0528   89.6125    8.5808 H       1  UNL1        0.2922
     13 C          64.2531   86.3800   14.6085 C.2     1  UNL1        0.3394
     14 O          65.6327   85.7980   14.6974 O.2     1  UNL1       -0.2452
     15 O          63.0682   85.5713   15.0468 O.3     1  UNL1       -0.4456
     16 C          63.2446   84.1341   15.4382 C.3     1  UNL1        0.2087
     17 C          63.1083   83.0536   14.4066 C.3     1  UNL1        0.0445
     18 C          61.9345   82.1205   14.4485 C.3     1  UNL1        0.0210
     19 C          61.7982   81.0401   13.4169 C.3     1  UNL1        0.0722
     20 N          62.8356   80.8928   12.3435 N.3     1  UNL1       -0.2727
     21 C          64.0093   81.8258   12.3017 C.3     1  UNL1        0.0722
     22 C          64.1457   82.9063   13.3332 C.3     1  UNL1        0.0210
     23 C          62.9533   81.5000   12.8870 C.3     1  UNL1        0.0722
     24 C          63.0765   82.4769   13.8198 C.3     1  UNL1        0.0210
@<TRIPOS>BOND
     1     1     2    1
     2     2     3    2
     3     3     4    1
     4     4     5    1
     5     4     6    2
     6     6     7    1
     7     7     8    2
     8     8     9    1
     9     9    10    2
    10    10    13    1
    11    13    14    2
    12    13    15    1
    13    15    16    1
    14    16    17    1
    15    17    18    1
    16    18    19    1
    17    19    20    1
    18    20    21    1
    19    21    22    1
    20    20    23    1
    21    23    24    1
    22    10    11    1
    23    11     2    1
    24    11     7    1
    25    22    17    1
    26    24    17    1
    27     5    12    1
@<TRIPOS>MOLECULE
*****
 24 27 0 0 0
SMALL
GASTEIGER

@<TRIPOS>ATOM
      1 C          63.6171   83.5230   10.3016 C.3     1  UNL1        0.0272
      2 C          63.2257   82.2644   11.0177 C.2     1  UNL1       -0.0314
      3 C          63.2564   80.9501   10.2955 C.2     1  UNL1        0.0289
      4 C          62.8651   79.6915   11.0116 C.2     1  UNL1        0.1343
      5 O          62.8958   78.3771   10.2894 O.2     1  UNL1       -0.5055
      6 C          62.4429   79.7472   12.4499 C.2     1  UNL1        0.0519
      7 C          62.4121   81.0616   13.1721 C.2     1  UNL1        0.0697
      8 N          62.0425   81.4249   14.5797 N.2     1  UNL1       -0.2475
      9 C          62.2055   82.9081   14.7335 C.2     1  UNL1        0.1013
     10 C          62.6758   83.4614   13.4210 C.2     1  UNL1        0.0814
     11 C          62.8035   82.3202   12.4560 C.3     1  UNL1        0.0888
     12 H          63.1595   78.3423    9.3909 H       1  UNL1        0.2922
     13 C          62.9672   84.9028   13.1255 C.2     1  UNL1        0.3394
     14 O          64.2507   85.5202   13.5961 O.2     1  UNL1       -0.2452
     15 O          61.9752   85.7268   12.3594 O.3     1  UNL1       -0.4456
     16 C          62.4509   86.7004   11.3223 C.3     1  UNL1        0.2087
     17 C          61.5442   87.0989   10.1957 C.3     1  UNL1        0.0445
     18 C          61.1639   88.5384   10.0125 C.3     1  UNL1        0.0210
     19 C          60.2572   88.9370    8.8860 C.3     1  UNL1        0.0722
     20 N          59.7308   87.8961    7.9426 N.3     1  UNL1       -0.2727
     21 C          60.1112   86.4568    8.1259 C.3     1  UNL1        0.0722
     22 C          61.0179   86.0582    9.2524 C.3     1  UNL1        0.0210
     23 C          60.2248   87.6296    8.5451 C.3     1  UNL1        0.0722
     24 C          61.0446   87.2692    9.5638 C.3     1  UNL1        0.0210
@<TRIPOS>BOND
     1     1     2    1
     2     2     3    2
     3     3     4    1
     4     4     5    1
     5     4     6    2
     6     6     7    1
     7     7     8    2
     8     8     9    1
     9     9    10    2
    10    10    13    1
    11    13    14    2
    12    13    15    1
    13    15    16    1
    14    16    17    1
    15    17    18    1
    16    18    19    1
    17    19    20    1
    18    20    21    1
    19    21    22    1
    20    20    23    1
    21    23    24    1
    22    10    11    1
    23    11     2    1
    24    11     7    1
    25    22    17    1
    26    24    17    1
    27     5    12    1
@<TRIPOS>MOLECULE
*****
 24 27 0 0 0
SMALL
GASTEIGER

@<TRIPOS>ATOM
      1 C          64.3711   89.0840   14.2080 C.3     1  UNL1        0.0272
      2 C          63.6481   89.0040   12.8962 C.2     1  UNL1       -0.0314
      3 C          63.4269   90.2460   12.0847 C.2     1  UNL1        0.0289
      4 C          62.7039   90.1660   10.7730 C.2     1  UNL1        0.1343
      5 O          62.4827   91.4080    9.9615 O.2     1  UNL1       -0.5055
      6 C          62.2021   88.8439   10.2725 C.2     1  UNL1        0.0519
      7 C          62.4233   87.6019   11.0840 C.2     1  UNL1        0.0697
      8 N          62.0458   86.1693   10.8494 N.2     1  UNL1       -0.2475
      9 C          62.5354   85.3639   12.0163 C.2     1  UNL1        0.1013
     10 C          63.2156   86.2987   12.9720 C.2     1  UNL1        0.0814
     11 C          63.1463   87.6819   12.3958 C.3     1  UNL1        0.0888
     12 H          62.7962   92.2339   10.2740 H       1  UNL1        0.2922
     13 C          63.8531   85.9173   14.2751 C.2     1  UNL1        0.3394
     14 O          63.2501   86.3791   15.5686 O.2     1  UNL1       -0.2452
     15 O          65.0937   85.0742   14.2847 O.3     1  UNL1       -0.4456
     16 C          65.0114   83.6232   14.6559 C.3     1  UNL1        0.2087
     17 C          63.9331   82.7595   14.0716 C.3     1  UNL1        0.0445
     18 C          64.1399   82.0994   12.7406 C.3     1  UNL1        0.0210
     19 C          63.0616   81.2357   12.1563 C.3     1  UNL1        0.0722
     20 N          61.7766   81.0322   12.9029 N.3     1  UNL1       -0.2727
     21 C          61.5699   81.6923   14.2339 C.3     1  UNL1        0.0722
     22 C          62.6481   82.5560   14.8182 C.3     1  UNL1        0.0210
     23 C          62.3384   81.5143   13.2634 C.3     1  UNL1        0.0722
     24 C          63.3134   82.2952   13.7918 C.3     1  UNL1        0.0210
@<TRIPOS>BOND
     1     1     2    1
     2     2     3    2
     3     3     4    1
     4     4     5    1
     5     4     6    2
     6     6     7    1
     7     7     8    2
     8     8     9    1
     9     9    10    2
    10    10    13    1
    11    13    14    2
    12    13    15    1
    13    15    16    1
    14    16    17    1
    15    17    18    1
    16    18    19    1
    17    19    20    1
    18    20    21    1
    19    21    22    1
    20    20    23    1
    21    23    24    1
    22    10    11    1
    23    11     2    1
    24    11     7    1
    25    22    17    1
    26    24    17    1
    27     5    12    1
@<TRIPOS>MOLECULE
*****
 24 27 0 0 0
SMALL
GASTEIGER

@<TRIPOS>ATOM
      1 C          63.9093   87.8064   13.7172 C.3     1  UNL1        0.0272
      2 C          63.5097   86.4987   13.1005 C.2     1  UNL1       -0.0314
      3 C          63.9472   85.2086   13.7284 C.2     1  UNL1        0.0289
      4 C          63.5477   83.9010   13.1119 C.2     1  UNL1        0.1343
      5 O          63.9853   82.6108   13.7398 O.2     1  UNL1       -0.5055
      6 C          62.7105   83.8832   11.8673 C.2     1  UNL1        0.0519
      7 C          62.2730   85.1733   11.2394 C.2     1  UNL1        0.0697
      8 N          61.4496   85.4678   10.0206 N.2     1  UNL1       -0.2475
      9 C          61.3403   86.9576    9.8841 C.2     1  UNL1        0.1013
     10 C          62.0961   87.5838   11.0184 C.2     1  UNL1        0.0814
     11 C          62.6726   86.4810   11.8560 C.3     1  UNL1        0.0888
     12 H          64.5082   82.6219   14.5173 H       1  UNL1        0.2922
     13 C          62.2487   89.0545   11.2707 C.2     1  UNL1        0.3394
     14 O          61.5438   89.6936   12.4303 O.2     1  UNL1       -0.2452
     15 O          63.1062   89.8862   10.3634 O.3     1  UNL1       -0.4456
     16 C          63.2437   91.3601   10.6047 C.3     1  UNL1        0.2087
     17 C          64.4557   91.8951   11.3082 C.3     1  UNL1        0.0445
     18 C          64.6640   91.6091   12.7660 C.3     1  UNL1        0.0210
     19 C          65.8759   92.1440   13.4696 C.3     1  UNL1        0.0722
     20 N          66.8797   92.9650   12.7154 N.3     1  UNL1       -0.2727
     21 C          66.6714   93.2510   11.2577 C.3     1  UNL1        0.0722
     22 C          65.4594   92.7160   10.5541 C.3     1  UNL1        0.0210
     23 C          66.2311   92.6934   12.2869 C.3     1  UNL1        0.0722
     24 C          65.1352   92.2097   11.6508 C.3     1  UNL1        0.0210
@<TRIPOS>BOND
     1     1     2    1
     2     2     3    2
     3     3     4    1
     4     4     5    1
     5     4     6    2
     6     6     7    1
     7     7     8    2
     8     8     9    1
     9     9    10    2
    10    10    13    1
    11    13    14    2
    12    13    15    1
    13    15    16    1
    14    16    17    1
    15    17    18    1
    16    18    19    1
    17    19    20    1
    18    20    21    1
    19    21    22    1
    20    20    23    1
    21    23    24    1
    22    10    11    1
    23    11     2    1
    24    11     7    1
    25    22    17    1
    26    24    17    1
    27     5    12    1
@<TRIPOS>MOLECULE
*****
 24 27 0 0 0
SMALL
GASTEIGER

@<TRIPOS>ATOM
      1 C          64.2593   86.9764   14.5711 C.3     1  UNL1        0.0272
      2 C          63.5772   86.3739   13.3787 C.2     1  UNL1       -0.0314
      3 C          63.4905   84.8830   13.2382 C.2     1  UNL1        0.0289
      4 C          62.8085   84.2805   12.0459 C.2     1  UNL1        0.1343
      5 O          62.7218   82.7896   11.9053 O.2     1  UNL1       -0.5055
      6 C          62.2131   85.1689   10.9940 C.2     1  UNL1        0.0519
      7 C          62.2998   86.6597   11.1345 C.2     1  UNL1        0.0697
      8 N          61.8097   87.7799   10.2656 N.2     1  UNL1       -0.2475
      9 C          62.1889   89.0748   10.9210 C.2     1  UNL1        0.1013
     10 C          62.9133   88.7549   12.1950 C.2     1  UNL1        0.0814
     11 C          62.9818   87.2623   12.3269 C.3     1  UNL1        0.0888
     12 H          63.0937   82.2346   12.5624 H       1  UNL1        0.2922
     13 C          63.4712   89.7524   13.1664 C.2     1  UNL1        0.3394
     14 O          62.7447   90.0394   14.4469 O.2     1  UNL1       -0.2452
     15 O          64.7555   90.4630   12.8572 O.3     1  UNL1       -0.4456
     16 C          65.0117   91.8288   13.4219 C.3     1  UNL1        0.2087
     17 C          66.2629   92.0938   14.2057 C.3     1  UNL1        0.0445
     18 C          66.1748   92.4591   15.6579 C.3     1  UNL1        0.0210
     19 C          67.4260   92.7241   16.4418 C.3     1  UNL1        0.0722
     20 N          68.7652   92.6238   15.7734 N.3     1  UNL1       -0.2727
     21 C          68.8532   92.2585   14.3212 C.3     1  UNL1        0.0722
     22 C          67.6020   91.9934   13.5374 C.3     1  UNL1        0.0210
     23 C          68.1074   92.4696   15.3027 C.3     1  UNL1        0.0722
     24 C          66.9760   92.2299   14.5940 C.3     1  UNL1        0.0210
@<TRIPOS>BOND
     1     1     2    1
     2     2     3    2
     3     3     4    1
     4     4     5    1
     5     4     6    2
     6     6     7    1
     7     7     8    2
     8     8     9    1
     9     9    10    2
    10    10    13    1
    11    13    14    2
    12    13    15    1
    13    15    16    1
    14    16    17    1
    15    17    18    1
    16    18    19    1
    17    19    20    1
    18    20    21    1
    19    21    22    1
    20    20    23    1
    21    23    24    1
    22    10    11    1
    23    11     2    1
    24    11     7    1
    25    22    17    1
    26    24    17    1
    27     5    12    1
