@<TRIPOS>MOLECULE
*****
 39 41 0 0 0
SMALL
GASTEIGER

@<TRIPOS>ATOM
      1 C          60.7145   87.6696    9.1380 C.ar    1  UNL1        0.1726
      2 C          60.7553   89.1625    9.2773 C.ar    1  UNL1        0.0411
      3 C          60.1267   90.0311    8.2282 C.ar    1  UNL1        0.0180
      4 C          59.4573   89.4068    7.0400 C.ar    1  UNL1        0.0540
      5 C          59.4164   87.9138    6.9007 C.ar    1  UNL1        0.0475
      6 C          60.0450   87.0452    7.9497 C.ar    1  UNL1        0.1756
      7 F          60.0042   85.5522    7.8104 F       1  UNL1       -0.2009
      8 N          58.8287   90.2753    5.9910 N.am    1  UNL1       -0.2679
      9 C          59.6923   91.0051    5.0053 C.2     1  UNL1        0.3102
     10 O          61.1845   90.8663    5.0685 O.2     1  UNL1       -0.2521
     11 N          59.0636   91.8737    3.9563 N.am    1  UNL1       -0.2391
     12 C          59.9272   92.6035    2.9705 C.2     1  UNL1        0.2337
     13 O          61.4195   92.4646    3.0338 O.2     1  UNL1       -0.2743
     14 H          57.8493   90.3665    5.9495 H       1  UNL1        0.1564
     15 H          58.0842   91.9648    3.9148 H       1  UNL1        0.1591
     16 C          59.2986   93.4721    1.9216 C.3     1  UNL1        0.1118
     17 C          59.8487   93.4801    0.5261 C.ar    1  UNL1       -0.0129
     18 C          59.0029   93.0009   -0.6162 C.ar    1  UNL1       -0.0015
     19 C          59.5529   93.0089   -2.0117 C.ar    1  UNL1        0.0293
     20 C          60.9488   93.4960   -2.2649 C.ar    1  UNL1        0.1401
     21 F          61.4989   93.5040   -3.6603 F       1  UNL1       -0.2042
     22 C          61.7946   93.9752   -1.1225 C.ar    1  UNL1        0.0293
     23 C          61.2446   93.9672    0.2729 C.ar    1  UNL1       -0.0015
     24 O          61.3431   86.8010   10.1870 O.3     1  UNL1       -0.4505
     25 C          62.8795   86.5461   12.2665 C.ar    1  UNL1        0.1072
     26 C          62.1589   87.4199   11.2831 C.ar    1  UNL1        0.1572
     27 C          62.2540   88.9127   11.3957 C.ar    1  UNL1        0.0589
     28 C          63.0698   89.5316   12.4918 C.ar    1  UNL1        0.1035
     29 N          63.7904   88.6578   13.4752 N.ar    1  UNL1       -0.2288
     30 C          63.6952   87.1651   13.3626 C.ar    1  UNL1        0.1360
     31 N          64.4159   86.2913   14.3461 N.pl3   1  UNL1       -0.3421
     32 H          64.9513   86.6975   15.0655 H       1  UNL1        0.1437
     33 H          64.3535   85.3116   14.2722 H       1  UNL1        0.1437
     34 C          62.6892   83.5607   12.0413 C.1     1  UNL1       -0.0683
     35 C          62.7843   85.0534   12.1539 C.1     1  UNL1       -0.0571
     36 C          62.5940   82.0679   11.9287 C.3     1  UNL1        0.1502
     37 C          61.8803   81.9124   14.4219 C.3     1  UNL1        0.0904
     38 N          62.2850   81.2424   13.1423 N.3     1  UNL1       -0.2591
     39 C          62.3806   79.7469   13.0764 C.3     1  UNL1        0.0904
@<TRIPOS>BOND
     1    37    38    1
     2    38    39    1
     3    38    36    1
     4    36    34    1
     5    34    35    3
     6    35    25    1
     7    25    26   ar
     8    26    24    1
     9    24     1    1
    10     1     2   ar
    11     2     3   ar
    12     3     4   ar
    13     4     8    1
    14     8     9   am
    15     9    10    2
    16     9    11   am
    17    11    12   am
    18    12    13    2
    19    12    16    1
    20    16    17    1
    21    17    18   ar
    22    18    19   ar
    23    19    20   ar
    24    20    21    1
    25    20    22   ar
    26    22    23   ar
    27     4     5   ar
    28     5     6   ar
    29     6     7    1
    30    26    27   ar
    31    27    28   ar
    32    28    29   ar
    33    29    30   ar
    34    30    31    1
    35    30    25   ar
    36     6     1   ar
    37    23    17   ar
    38     8    14    1
    39    11    15    1
    40    31    32    1
    41    31    33    1
@<TRIPOS>MOLECULE
*****
 39 41 0 0 0
SMALL
GASTEIGER

@<TRIPOS>ATOM
      1 C          63.9010   88.4333   13.3794 C.ar    1  UNL1        0.1726
      2 C          63.1565   87.6118   12.3690 C.ar    1  UNL1        0.0411
      3 C          62.4514   88.2841   11.2284 C.ar    1  UNL1        0.0180
      4 C          62.4907   89.7779   11.0983 C.ar    1  UNL1        0.0540
      5 C          63.2351   90.5995   12.1087 C.ar    1  UNL1        0.0475
      6 C          63.9402   89.9272   13.2492 C.ar    1  UNL1        0.1756
      7 F          64.6847   90.7487   14.2596 F       1  UNL1       -0.2009
      8 N          61.7856   90.4502    9.9578 N.am    1  UNL1       -0.2679
      9 C          60.9245   89.6458    9.0296 C.2     1  UNL1        0.3102
     10 O          60.7686   88.1692    9.2419 O.2     1  UNL1       -0.2521
     11 N          60.2194   90.3182    7.8890 N.am    1  UNL1       -0.2391
     12 C          59.3584   89.5138    6.9608 C.2     1  UNL1        0.2337
     13 O          59.2024   88.0371    7.1732 O.2     1  UNL1       -0.2743
     14 H          61.8879   91.4194    9.8184 H       1  UNL1        0.1564
     15 H          60.3218   91.2874    7.7497 H       1  UNL1        0.1591
     16 C          58.6533   90.1861    5.8203 C.3     1  UNL1        0.1118
     17 C          59.4289   91.0267    4.8499 C.ar    1  UNL1       -0.0129
     18 C          58.7225   92.0540    4.0159 C.ar    1  UNL1       -0.0015
     19 C          59.4981   92.8946    3.0454 C.ar    1  UNL1        0.0293
     20 C          60.9802   92.7079    2.9090 C.ar    1  UNL1        0.1401
     21 F          61.7558   93.5485    1.9386 F       1  UNL1       -0.2042
     22 C          61.6866   91.6806    3.7430 C.ar    1  UNL1        0.0293
     23 C          60.9109   90.8400    4.7134 C.ar    1  UNL1       -0.0015
     24 O          64.6061   87.7610   14.5199 O.3     1  UNL1       -0.4505
     25 C          63.4947   85.5892   15.4133 C.ar    1  UNL1        0.1072
     26 C          63.8143   87.0459   15.5743 C.ar    1  UNL1        0.1572
     27 C          63.3421   87.7875   16.7896 C.ar    1  UNL1        0.0589
     28 C          62.5503   87.0724   17.8440 C.ar    1  UNL1        0.1035
     29 N          62.2307   85.6157   17.6830 N.ar    1  UNL1       -0.2288
     30 C          62.7029   84.8741   16.4677 C.ar    1  UNL1        0.1360
     31 N          62.3833   83.4174   16.3067 N.pl3   1  UNL1       -0.3421
     32 H          61.8637   82.9480   16.9987 H       1  UNL1        0.1437
     33 H          62.6933   82.9306   15.5090 H       1  UNL1        0.1437
     34 C          64.4391   84.1060   12.9826 C.1     1  UNL1       -0.0683
     35 C          63.9669   84.8476   14.1979 C.1     1  UNL1       -0.0571
     36 C          64.9113   83.3645   11.7672 C.3     1  UNL1        0.1502
     37 C          63.4285   81.6357   10.5172 C.3     1  UNL1        0.0904
     38 N          63.9460   83.0356   10.6672 N.3     1  UNL1       -0.2591
     39 C          63.4983   84.1066    9.7171 C.3     1  UNL1        0.0904
@<TRIPOS>BOND
     1    37    38    1
     2    38    39    1
     3    38    36    1
     4    36    34    1
     5    34    35    3
     6    35    25    1
     7    25    26   ar
     8    26    24    1
     9    24     1    1
    10     1     2   ar
    11     2     3   ar
    12     3     4   ar
    13     4     8    1
    14     8     9   am
    15     9    10    2
    16     9    11   am
    17    11    12   am
    18    12    13    2
    19    12    16    1
    20    16    17    1
    21    17    18   ar
    22    18    19   ar
    23    19    20   ar
    24    20    21    1
    25    20    22   ar
    26    22    23   ar
    27     4     5   ar
    28     5     6   ar
    29     6     7    1
    30    26    27   ar
    31    27    28   ar
    32    28    29   ar
    33    29    30   ar
    34    30    31    1
    35    30    25   ar
    36     6     1   ar
    37    23    17   ar
    38     8    14    1
    39    11    15    1
    40    31    32    1
    41    31    33    1
@<TRIPOS>MOLECULE
*****
 39 41 0 0 0
SMALL
GASTEIGER

@<TRIPOS>ATOM
      1 C          73.1192   73.9138   14.8399 C.ar    1  UNL1        0.1726
      2 C          72.6115   75.2620   15.2577 C.ar    1  UNL1        0.0411
      3 C          72.0982   76.2228   14.2264 C.ar    1  UNL1        0.0180
      4 C          72.0927   75.8353   12.7774 C.ar    1  UNL1        0.0540
      5 C          72.6005   74.4872   12.3595 C.ar    1  UNL1        0.0475
      6 C          73.1137   73.5264   13.3907 C.ar    1  UNL1        0.1756
      7 F          73.6215   72.1782   12.9729 F       1  UNL1       -0.2009
      8 N          71.5794   76.7961   11.7462 N.am    1  UNL1       -0.2679
      9 C          72.2633   78.1158   11.5443 C.2     1  UNL1        0.3102
     10 O          73.4605   78.4747   12.3737 O.2     1  UNL1       -0.2521
     11 N          71.7500   79.0766   10.5131 N.am    1  UNL1       -0.2391
     12 C          72.4339   80.3963   10.3112 C.2     1  UNL1        0.2337
     13 O          73.6311   80.7551   11.1407 O.2     1  UNL1       -0.2743
     14 H          70.7937   76.5606   11.2018 H       1  UNL1        0.1564
     15 H          70.9642   78.8410    9.9687 H       1  UNL1        0.1591
     16 C          71.9206   81.3570    9.2800 C.3     1  UNL1        0.1118
     17 C          72.3253   81.2028    7.8439 C.ar    1  UNL1       -0.0129
     18 C          73.2117   80.0647    7.4326 C.ar    1  UNL1       -0.0015
     19 C          73.6164   79.9105    5.9965 C.ar    1  UNL1        0.0293
     20 C          73.1348   80.8943    4.9717 C.ar    1  UNL1        0.1401
     21 F          73.5396   80.7401    3.5356 F       1  UNL1       -0.2042
     22 C          72.2485   82.0323    5.3831 C.ar    1  UNL1        0.0293
     23 C          71.8438   82.1866    6.8192 C.ar    1  UNL1       -0.0015
     24 O          73.6325   72.9530   15.8711 O.3     1  UNL1       -0.4505
     25 C          71.7906   71.7107   17.2180 C.ar    1  UNL1        0.1072
     26 C          72.8729   72.7469   17.1481 C.ar    1  UNL1        0.1572
     27 C          73.1956   73.5769   18.3551 C.ar    1  UNL1        0.0589
     28 C          72.4361   73.3708   19.6320 C.ar    1  UNL1        0.1035
     29 N          71.3538   72.3346   19.7019 N.ar    1  UNL1       -0.2288
     30 C          71.0311   71.5045   18.4949 C.ar    1  UNL1        0.1360
     31 N          69.9487   70.4683   18.5648 N.pl3   1  UNL1       -0.3421
     32 H          69.4502   70.3330   19.4029 H       1  UNL1        0.1437
     33 H          69.7368   69.9235   17.7727 H       1  UNL1        0.1437
     34 C          71.1451   70.0506   14.8040 C.1     1  UNL1       -0.0683
     35 C          71.4678   70.8806   16.0110 C.1     1  UNL1       -0.0571
     36 C          70.8223   69.2206   13.5969 C.3     1  UNL1        0.1502
     37 C          68.7654   69.0128   12.0235 C.3     1  UNL1        0.0904
     38 N          69.9570   69.7839   12.5089 N.3     1  UNL1       -0.2591
     39 C          70.2832   71.1182   11.9063 C.3     1  UNL1        0.0904
@<TRIPOS>BOND
     1    37    38    1
     2    38    39    1
     3    38    36    1
     4    36    34    1
     5    34    35    3
     6    35    25    1
     7    25    26   ar
     8    26    24    1
     9    24     1    1
    10     1     2   ar
    11     2     3   ar
    12     3     4   ar
    13     4     8    1
    14     8     9   am
    15     9    10    2
    16     9    11   am
    17    11    12   am
    18    12    13    2
    19    12    16    1
    20    16    17    1
    21    17    18   ar
    22    18    19   ar
    23    19    20   ar
    24    20    21    1
    25    20    22   ar
    26    22    23   ar
    27     4     5   ar
    28     5     6   ar
    29     6     7    1
    30    26    27   ar
    31    27    28   ar
    32    28    29   ar
    33    29    30   ar
    34    30    31    1
    35    30    25   ar
    36     6     1   ar
    37    23    17   ar
    38     8    14    1
    39    11    15    1
    40    31    32    1
    41    31    33    1
@<TRIPOS>MOLECULE
*****
 39 41 0 0 0
SMALL
GASTEIGER

@<TRIPOS>ATOM
      1 C          61.7205   94.6770    0.6415 C.ar    1  UNL1        0.1726
      2 C          62.8685   93.7235    0.7929 C.ar    1  UNL1        0.0411
      3 C          62.8424   92.6838    1.8739 C.ar    1  UNL1        0.0180
      4 C          61.6683   92.5976    2.8034 C.ar    1  UNL1        0.0540
      5 C          60.5203   93.5510    2.6520 C.ar    1  UNL1        0.0475
      6 C          60.5464   94.5907    1.5711 C.ar    1  UNL1        0.1756
      7 F          59.3983   95.5442    1.4197 F       1  UNL1       -0.2009
      8 N          61.6423   91.5579    3.8842 N.am    1  UNL1       -0.2679
      9 C          60.3478   91.2060    4.5554 C.2     1  UNL1        0.3102
     10 O          59.0793   91.8938    4.1456 O.2     1  UNL1       -0.2521
     11 N          60.3217   90.1663    5.6363 N.am    1  UNL1       -0.2391
     12 C          59.0272   89.8144    6.3074 C.2     1  UNL1        0.2337
     13 O          57.7587   90.5022    5.8976 O.2     1  UNL1       -0.2743
     14 H          62.4748   91.1065    4.1532 H       1  UNL1        0.1564
     15 H          61.1543   89.7148    5.9052 H       1  UNL1        0.1591
     16 C          59.0012   88.7747    7.3883 C.3     1  UNL1        0.1118
     17 C          60.0564   88.7745    8.4543 C.ar    1  UNL1       -0.0129
     18 C          60.8659   87.5374    8.7081 C.ar    1  UNL1       -0.0015
     19 C          61.9211   87.5372    9.7742 C.ar    1  UNL1        0.0293
     20 C          62.1669   88.7740   10.5864 C.ar    1  UNL1        0.1401
     21 F          63.2221   88.7738   11.6525 F       1  UNL1       -0.2042
     22 C          61.3574   90.0110   10.3327 C.ar    1  UNL1        0.0293
     23 C          60.3022   90.0113    9.2666 C.ar    1  UNL1       -0.0015
     24 O          61.7466   95.7166   -0.4394 O.3     1  UNL1       -0.4505
     25 C          62.4209   94.8329   -2.7876 C.ar    1  UNL1        0.1072
     26 C          62.7481   95.6172   -1.5517 C.ar    1  UNL1        0.1572
     27 C          64.0768   96.3022   -1.4279 C.ar    1  UNL1        0.0589
     28 C          65.0784   96.2029   -2.5401 C.ar    1  UNL1        0.1035
     29 N          64.7511   95.4185   -3.7761 N.ar    1  UNL1       -0.2288
     30 C          63.4224   94.7336   -3.8999 C.ar    1  UNL1        0.1360
     31 N          63.0952   93.9492   -5.1359 N.pl3   1  UNL1       -0.3421
     32 H          63.7526   93.8840   -5.8659 H       1  UNL1        0.1437
     33 H          62.2231   93.4997   -5.2172 H       1  UNL1        0.1437
     34 C          59.7635   93.4630   -3.0352 C.1     1  UNL1       -0.0683
     35 C          61.0922   94.1480   -2.9114 C.1     1  UNL1       -0.0571
     36 C          58.4347   92.7780   -3.1590 C.3     1  UNL1        0.1502
     37 C          56.0943   92.2625   -2.1557 C.3     1  UNL1        0.0904
     38 N          57.5172   92.7016   -1.9749 N.3     1  UNL1       -0.2591
     39 C          58.0224   93.0642   -0.6098 C.3     1  UNL1        0.0904
@<TRIPOS>BOND
     1    37    38    1
     2    38    39    1
     3    38    36    1
     4    36    34    1
     5    34    35    3
     6    35    25    1
     7    25    26   ar
     8    26    24    1
     9    24     1    1
    10     1     2   ar
    11     2     3   ar
    12     3     4   ar
    13     4     8    1
    14     8     9   am
    15     9    10    2
    16     9    11   am
    17    11    12   am
    18    12    13    2
    19    12    16    1
    20    16    17    1
    21    17    18   ar
    22    18    19   ar
    23    19    20   ar
    24    20    21    1
    25    20    22   ar
    26    22    23   ar
    27     4     5   ar
    28     5     6   ar
    29     6     7    1
    30    26    27   ar
    31    27    28   ar
    32    28    29   ar
    33    29    30   ar
    34    30    31    1
    35    30    25   ar
    36     6     1   ar
    37    23    17   ar
    38     8    14    1
    39    11    15    1
    40    31    32    1
    41    31    33    1
@<TRIPOS>MOLECULE
*****
 39 41 0 0 0
SMALL
GASTEIGER

@<TRIPOS>ATOM
      1 C          63.7456   90.3743   13.1358 C.ar    1  UNL1        0.1726
      2 C          64.2598   89.3155   14.0656 C.ar    1  UNL1        0.0411
      3 C          63.9517   87.8713   13.8013 C.ar    1  UNL1        0.0180
      4 C          63.1295   87.4862   12.6074 C.ar    1  UNL1        0.0540
      5 C          62.6153   88.5450   11.6776 C.ar    1  UNL1        0.0475
      6 C          62.9233   89.9890   11.9418 C.ar    1  UNL1        0.1756
      7 F          62.4091   91.0479   11.0121 F       1  UNL1       -0.2009
      8 N          62.8216   86.0421   12.3432 N.am    1  UNL1       -0.2679
      9 C          62.8056   85.0592   13.4761 C.2     1  UNL1        0.3102
     10 O          63.0976   85.5203   14.8733 O.2     1  UNL1       -0.2521
     11 N          62.4976   83.6151   13.2118 N.am    1  UNL1       -0.2391
     12 C          62.4816   82.6321   14.3448 C.2     1  UNL1        0.2337
     13 O          62.7736   83.0933   15.7420 O.2     1  UNL1       -0.2743
     14 H          62.6299   85.7395   11.4262 H       1  UNL1        0.1564
     15 H          62.3059   83.3124   12.2948 H       1  UNL1        0.1591
     16 C          62.1736   81.1881   14.0806 C.3     1  UNL1        0.1118
     17 C          62.4838   80.5879   12.7413 C.ar    1  UNL1       -0.0129
     18 C          62.3470   79.1089   12.5325 C.ar    1  UNL1       -0.0015
     19 C          62.6572   78.5087   11.1932 C.ar    1  UNL1        0.0293
     20 C          63.1041   79.3875   10.0628 C.ar    1  UNL1        0.1401
     21 F          63.4142   78.7873    8.7236 F       1  UNL1       -0.2042
     22 C          63.2408   80.8666   10.2717 C.ar    1  UNL1        0.0293
     23 C          62.9307   81.4668   11.6109 C.ar    1  UNL1       -0.0015
     24 O          64.0536   91.8183   13.4000 O.3     1  UNL1       -0.4505
     25 C          66.3397   92.8053   14.1413 C.ar    1  UNL1        0.1072
     26 C          65.0151   92.1932   14.4886 C.ar    1  UNL1        0.1572
     27 C          64.6521   91.9558   15.9245 C.ar    1  UNL1        0.0589
     28 C          65.6136   92.3306   17.0131 C.ar    1  UNL1        0.1035
     29 N          66.9382   92.9427   16.6657 N.ar    1  UNL1       -0.2288
     30 C          67.3012   93.1801   15.2298 C.ar    1  UNL1        0.1360
     31 N          68.6259   93.7923   14.8825 N.pl3   1  UNL1       -0.3421
     32 H          69.2570   94.0383   15.5969 H       1  UNL1        0.1437
     33 H          68.8642   93.9481   13.9400 H       1  UNL1        0.1437
     34 C          67.0659   93.2800   11.2694 C.1     1  UNL1       -0.0683
     35 C          66.7028   93.0426   12.7053 C.1     1  UNL1       -0.0571
     36 C          67.4290   93.5173    9.8335 C.3     1  UNL1        0.1502
     37 C          66.9467   96.0578   10.0849 C.3     1  UNL1        0.0904
     38 N          67.1940   94.8626    9.2130 N.3     1  UNL1       -0.2591
     39 C          67.2063   95.0125    7.7205 C.3     1  UNL1        0.0904
@<TRIPOS>BOND
     1    37    38    1
     2    38    39    1
     3    38    36    1
     4    36    34    1
     5    34    35    3
     6    35    25    1
     7    25    26   ar
     8    26    24    1
     9    24     1    1
    10     1     2   ar
    11     2     3   ar
    12     3     4   ar
    13     4     8    1
    14     8     9   am
    15     9    10    2
    16     9    11   am
    17    11    12   am
    18    12    13    2
    19    12    16    1
    20    16    17    1
    21    17    18   ar
    22    18    19   ar
    23    19    20   ar
    24    20    21    1
    25    20    22   ar
    26    22    23   ar
    27     4     5   ar
    28     5     6   ar
    29     6     7    1
    30    26    27   ar
    31    27    28   ar
    32    28    29   ar
    33    29    30   ar
    34    30    31    1
    35    30    25   ar
    36     6     1   ar
    37    23    17   ar
    38     8    14    1
    39    11    15    1
    40    31    32    1
    41    31    33    1
@<TRIPOS>MOLECULE
*****
 39 41 0 0 0
SMALL
GASTEIGER

@<TRIPOS>ATOM
      1 C          59.3010   91.9874    4.0393 C.ar    1  UNL1        0.1726
      2 C          60.5707   91.2906    4.4297 C.ar    1  UNL1        0.0411
      3 C          60.5450   90.2146    5.4745 C.ar    1  UNL1        0.0180
      4 C          59.2497   89.8354    6.1289 C.ar    1  UNL1        0.0540
      5 C          57.9800   90.5322    5.7386 C.ar    1  UNL1        0.0475
      6 C          58.0056   91.6082    4.6938 C.ar    1  UNL1        0.1756
      7 F          56.7359   92.3049    4.3034 F       1  UNL1       -0.2009
      8 N          59.2241   88.7595    7.1737 N.am    1  UNL1       -0.2679
      9 C          60.1776   88.8143    8.3303 C.2     1  UNL1        0.3102
     10 O          61.1568   89.9450    8.4421 O.2     1  UNL1       -0.2521
     11 N          60.1520   87.7382    9.3751 N.am    1  UNL1       -0.2391
     12 C          61.1055   87.7930   10.5317 C.2     1  UNL1        0.2337
     13 O          62.0848   88.9238   10.6435 O.2     1  UNL1       -0.2743
     14 H          58.5814   88.0173    7.1003 H       1  UNL1        0.1564
     15 H          59.5093   86.9960    9.3017 H       1  UNL1        0.1591
     16 C          61.0799   86.7170   11.5765 C.3     1  UNL1        0.1118
     17 C          62.0498   85.5753   11.5013 C.ar    1  UNL1       -0.0129
     18 C          62.5408   84.9241   12.7602 C.ar    1  UNL1       -0.0015
     19 C          63.5108   83.7824   12.6849 C.ar    1  UNL1        0.0293
     20 C          63.9897   83.2919   11.3508 C.ar    1  UNL1        0.1401
     21 F          64.9597   82.1501   11.2756 F       1  UNL1       -0.2042
     22 C          63.4988   83.9431   10.0919 C.ar    1  UNL1        0.0293
     23 C          62.5288   85.0848   10.1672 C.ar    1  UNL1       -0.0015
     24 O          59.3266   93.0633    2.9945 O.3     1  UNL1       -0.4505
     25 C          60.3721   93.2736    0.6254 C.ar    1  UNL1        0.1072
     26 C          60.5315   93.2273    2.1161 C.ar    1  UNL1        0.1572
     27 C          61.8957   93.3450    2.7286 C.ar    1  UNL1        0.0589
     28 C          63.1005   93.5090    1.8503 C.ar    1  UNL1        0.1035
     29 N          62.9411   93.5553    0.3596 N.ar    1  UNL1       -0.2288
     30 C          61.5770   93.4376   -0.2529 C.ar    1  UNL1        0.1360
     31 N          61.4176   93.4838   -1.7438 N.pl3   1  UNL1       -0.3421
     32 H          62.2084   93.5915   -2.3202 H       1  UNL1        0.1437
     33 H          60.5223   93.4066   -2.1458 H       1  UNL1        0.1437
     34 C          57.6437   93.0382   -0.5995 C.1     1  UNL1       -0.0683
     35 C          59.0079   93.1559    0.0129 C.1     1  UNL1       -0.0571
     36 C          56.2795   92.9205   -1.2120 C.3     1  UNL1        0.1502
     37 C          56.0239   91.1932   -3.1358 C.3     1  UNL1        0.0904
     38 N          56.1374   92.6158   -2.6738 N.3     1  UNL1       -0.2591
     39 C          56.1089   93.7336   -3.6737 C.3     1  UNL1        0.0904
@<TRIPOS>BOND
     1    37    38    1
     2    38    39    1
     3    38    36    1
     4    36    34    1
     5    34    35    3
     6    35    25    1
     7    25    26   ar
     8    26    24    1
     9    24     1    1
    10     1     2   ar
    11     2     3   ar
    12     3     4   ar
    13     4     8    1
    14     8     9   am
    15     9    10    2
    16     9    11   am
    17    11    12   am
    18    12    13    2
    19    12    16    1
    20    16    17    1
    21    17    18   ar
    22    18    19   ar
    23    19    20   ar
    24    20    21    1
    25    20    22   ar
    26    22    23   ar
    27     4     5   ar
    28     5     6   ar
    29     6     7    1
    30    26    27   ar
    31    27    28   ar
    32    28    29   ar
    33    29    30   ar
    34    30    31    1
    35    30    25   ar
    36     6     1   ar
    37    23    17   ar
    38     8    14    1
    39    11    15    1
    40    31    32    1
    41    31    33    1
@<TRIPOS>MOLECULE
*****
 39 41 0 0 0
SMALL
GASTEIGER

@<TRIPOS>ATOM
      1 C          60.8593   87.0153   10.0991 C.ar    1  UNL1        0.1726
      2 C          60.2603   86.3148    8.9156 C.ar    1  UNL1        0.0411
      3 C          59.5775   87.1081    7.8410 C.ar    1  UNL1        0.0180
      4 C          59.4939   88.6018    7.9499 C.ar    1  UNL1        0.0540
      5 C          60.0929   89.3023    9.1333 C.ar    1  UNL1        0.0475
      6 C          60.7756   88.5091   10.2079 C.ar    1  UNL1        0.1756
      7 F          61.3746   89.2095   11.3913 F       1  UNL1       -0.2009
      8 N          58.8112   89.3950    6.8753 N.am    1  UNL1       -0.2679
      9 C          59.6199   90.2518    5.9470 C.2     1  UNL1        0.3102
     10 O          61.1114   90.3154    6.0933 O.2     1  UNL1       -0.2521
     11 N          58.9372   91.0450    4.8724 N.am    1  UNL1       -0.2391
     12 C          59.7459   91.9018    3.9441 C.2     1  UNL1        0.2337
     13 O          61.2375   91.9654    4.0904 O.2     1  UNL1       -0.2743
     14 H          57.8323   89.3532    6.7793 H       1  UNL1        0.1564
     15 H          57.9582   91.0033    4.7764 H       1  UNL1        0.1591
     16 C          59.0632   92.6950    2.8696 C.3     1  UNL1        0.1118
     17 C          59.8623   93.2634    1.7345 C.ar    1  UNL1       -0.0129
     18 C          60.1179   92.4367    0.5093 C.ar    1  UNL1       -0.0015
     19 C          60.9170   93.0052   -0.6258 C.ar    1  UNL1        0.0293
     20 C          61.4606   94.4003   -0.5356 C.ar    1  UNL1        0.1401
     21 F          62.2597   94.9687   -1.6706 F       1  UNL1       -0.2042
     22 C          61.2050   95.2269    0.6896 C.ar    1  UNL1        0.0293
     23 C          60.4059   94.6585    1.8247 C.ar    1  UNL1       -0.0015
     24 O          61.5420   86.2221   11.1736 O.3     1  UNL1       -0.4505
     25 C          63.1984   84.3490   11.8793 C.ar    1  UNL1        0.1072
     26 C          62.5242   85.1500   10.8051 C.ar    1  UNL1        0.1572
     27 C          62.8323   84.8788    9.3624 C.ar    1  UNL1        0.0589
     28 C          63.8145   83.8067    8.9938 C.ar    1  UNL1        0.1035
     29 N          64.4886   83.0058   10.0681 N.ar    1  UNL1       -0.2288
     30 C          64.1806   83.2770   11.5108 C.ar    1  UNL1        0.1360
     31 N          64.8548   82.4760   12.5851 N.pl3   1  UNL1       -0.3421
     32 H          65.4994   81.7723   12.3432 H       1  UNL1        0.1437
     33 H          64.6526   82.6539   13.5320 H       1  UNL1        0.1437
     34 C          62.5823   84.8914   14.7649 C.1     1  UNL1       -0.0683
     35 C          62.8903   84.6202   13.3221 C.1     1  UNL1       -0.0571
     36 C          62.2742   85.1626   16.2076 C.3     1  UNL1        0.1502
     37 C          62.6325   86.5885   18.3496 C.3     1  UNL1        0.0904
     38 N          62.8336   86.3825   16.8775 N.3     1  UNL1       -0.2591
     39 C          63.5941   87.3965   16.0753 C.3     1  UNL1        0.0904
@<TRIPOS>BOND
     1    37    38    1
     2    38    39    1
     3    38    36    1
     4    36    34    1
     5    34    35    3
     6    35    25    1
     7    25    26   ar
     8    26    24    1
     9    24     1    1
    10     1     2   ar
    11     2     3   ar
    12     3     4   ar
    13     4     8    1
    14     8     9   am
    15     9    10    2
    16     9    11   am
    17    11    12   am
    18    12    13    2
    19    12    16    1
    20    16    17    1
    21    17    18   ar
    22    18    19   ar
    23    19    20   ar
    24    20    21    1
    25    20    22   ar
    26    22    23   ar
    27     4     5   ar
    28     5     6   ar
    29     6     7    1
    30    26    27   ar
    31    27    28   ar
    32    28    29   ar
    33    29    30   ar
    34    30    31    1
    35    30    25   ar
    36     6     1   ar
    37    23    17   ar
    38     8    14    1
    39    11    15    1
    40    31    32    1
    41    31    33    1
@<TRIPOS>MOLECULE
*****
 39 41 0 0 0
SMALL
GASTEIGER

@<TRIPOS>ATOM
      1 C          62.7436   84.0757   15.0232 C.ar    1  UNL1        0.1726
      2 C          62.0627   85.3132   15.5281 C.ar    1  UNL1        0.0411
      3 C          62.8100   86.6129   15.5785 C.ar    1  UNL1        0.0180
      4 C          64.2381   86.6750   15.1241 C.ar    1  UNL1        0.0540
      5 C          64.9190   85.4375   14.6192 C.ar    1  UNL1        0.0475
      6 C          64.1718   84.1379   14.5687 C.ar    1  UNL1        0.1756
      7 F          64.8528   82.9004   14.0638 F       1  UNL1       -0.2009
      8 N          64.9852   87.9746   15.1745 N.am    1  UNL1       -0.2679
      9 C          64.6258   89.0836   14.2306 C.2     1  UNL1        0.3102
     10 O          63.5191   88.8929   13.2362 O.2     1  UNL1       -0.2521
     11 N          65.3730   90.3833   14.2811 N.am    1  UNL1       -0.2391
     12 C          65.0136   91.4922   13.3371 C.2     1  UNL1        0.2337
     13 O          63.9068   91.3014   12.3426 O.2     1  UNL1       -0.2743
     14 H          65.7116   88.0998   15.8272 H       1  UNL1        0.1564
     15 H          66.0994   90.5085   14.9338 H       1  UNL1        0.1591
     16 C          65.7607   92.7918   13.3876 C.3     1  UNL1        0.1118
     17 C          66.2965   93.3985   12.1246 C.ar    1  UNL1       -0.0129
     18 C          66.9686   92.5308   11.1022 C.ar    1  UNL1       -0.0015
     19 C          67.5044   93.1375    9.8393 C.ar    1  UNL1        0.0293
     20 C          67.3681   94.6117    9.5988 C.ar    1  UNL1        0.1401
     21 F          67.9039   95.2183    8.3359 F       1  UNL1       -0.2042
     22 C          66.6959   95.4794   10.6212 C.ar    1  UNL1        0.0293
     23 C          66.1602   94.8727   11.8841 C.ar    1  UNL1       -0.0015
     24 O          61.9965   82.7760   14.9727 O.3     1  UNL1       -0.4505
     25 C          62.5107   82.2137   12.4889 C.ar    1  UNL1        0.1072
     26 C          62.3149   81.7686   13.9079 C.ar    1  UNL1        0.1572
     27 C          62.4375   80.3162   14.2620 C.ar    1  UNL1        0.0589
     28 C          62.7559   79.3089   13.1972 C.ar    1  UNL1        0.1035
     29 N          62.9517   79.7540   11.7783 N.ar    1  UNL1       -0.2288
     30 C          62.8291   81.2064   11.4241 C.ar    1  UNL1        0.1360
     31 N          63.0249   81.6514   10.0050 N.pl3   1  UNL1       -0.3421
     32 H          63.2339   80.9903    9.3062 H       1  UNL1        0.1437
     33 H          62.9444   82.6047    9.7726 H       1  UNL1        0.1437
     34 C          62.2655   85.1186   11.7805 C.1     1  UNL1       -0.0683
     35 C          62.3881   83.6661   12.1347 C.1     1  UNL1       -0.0571
     36 C          62.1429   86.5710   11.4264 C.3     1  UNL1        0.1502
     37 C          60.1449   88.1846   11.0339 C.3     1  UNL1        0.0904
     38 N          61.0010   87.0416   10.5751 N.3     1  UNL1       -0.2591
     39 C          60.7153   86.3692    9.2650 C.3     1  UNL1        0.0904
@<TRIPOS>BOND
     1    37    38    1
     2    38    39    1
     3    38    36    1
     4    36    34    1
     5    34    35    3
     6    35    25    1
     7    25    26   ar
     8    26    24    1
     9    24     1    1
    10     1     2   ar
    11     2     3   ar
    12     3     4   ar
    13     4     8    1
    14     8     9   am
    15     9    10    2
    16     9    11   am
    17    11    12   am
    18    12    13    2
    19    12    16    1
    20    16    17    1
    21    17    18   ar
    22    18    19   ar
    23    19    20   ar
    24    20    21    1
    25    20    22   ar
    26    22    23   ar
    27     4     5   ar
    28     5     6   ar
    29     6     7    1
    30    26    27   ar
    31    27    28   ar
    32    28    29   ar
    33    29    30   ar
    34    30    31    1
    35    30    25   ar
    36     6     1   ar
    37    23    17   ar
    38     8    14    1
    39    11    15    1
    40    31    32    1
    41    31    33    1
@<TRIPOS>MOLECULE
*****
 39 41 0 0 0
SMALL
GASTEIGER

@<TRIPOS>ATOM
      1 C          64.0619   92.1625   11.2433 C.ar    1  UNL1        0.1726
      2 C          63.4830   91.4527   10.0555 C.ar    1  UNL1        0.0411
      3 C          62.9429   90.0611   10.2031 C.ar    1  UNL1        0.0180
      4 C          62.9818   89.3793   11.5386 C.ar    1  UNL1        0.0540
      5 C          63.5607   90.0891   12.7265 C.ar    1  UNL1        0.0475
      6 C          64.1007   91.4807   12.5789 C.ar    1  UNL1        0.1756
      7 F          64.6796   92.1905   13.7668 F       1  UNL1       -0.2009
      8 N          62.4418   87.9877   11.6863 N.am    1  UNL1       -0.2679
      9 C          63.0427   87.0530   12.6938 C.2     1  UNL1        0.3102
     10 O          64.1836   87.5098   13.5538 O.2     1  UNL1       -0.2521
     11 N          62.5026   85.6613   12.8414 N.am    1  UNL1       -0.2391
     12 C          63.1035   84.7266   13.8490 C.2     1  UNL1        0.2337
     13 O          64.2444   85.1835   14.7090 O.2     1  UNL1       -0.2743
     14 H          61.6930   87.6878   11.1218 H       1  UNL1        0.1564
     15 H          61.7538   85.3615   12.2770 H       1  UNL1        0.1591
     16 C          62.5635   83.3350   13.9966 C.3     1  UNL1        0.1118
     17 C          62.7193   82.3475   12.8784 C.ar    1  UNL1       -0.0129
     18 C          63.2283   82.8014   11.5424 C.ar    1  UNL1       -0.0015
     19 C          63.3841   81.8139   10.4241 C.ar    1  UNL1        0.0293
     20 C          63.0309   80.3725   10.6418 C.ar    1  UNL1        0.1401
     21 F          63.1867   79.3850    9.5235 F       1  UNL1       -0.2042
     22 C          62.5219   79.9185   11.9778 C.ar    1  UNL1        0.0293
     23 C          62.3661   80.9061   13.0960 C.ar    1  UNL1       -0.0015
     24 O          64.6019   93.5541   11.0957 O.3     1  UNL1       -0.4505
     25 C          67.1324   93.3596   10.5403 C.ar    1  UNL1        0.1072
     26 C          65.7529   93.8178   10.1706 C.ar    1  UNL1        0.1572
     27 C          65.5241   94.5396    8.8757 C.ar    1  UNL1        0.0589
     28 C          66.6750   94.8033    7.9506 C.ar    1  UNL1        0.1035
     29 N          68.0546   94.3451    8.3204 N.ar    1  UNL1       -0.2288
     30 C          68.2833   93.6233    9.6152 C.ar    1  UNL1        0.1360
     31 N          69.6630   93.1652    9.9849 N.pl3   1  UNL1       -0.3421
     32 H          70.4184   93.3382    9.3777 H       1  UNL1        0.1437
     33 H          69.8132   92.6914   10.8348 H       1  UNL1        0.1437
     34 C          67.5899   91.9160   13.1300 C.1     1  UNL1       -0.0683
     35 C          67.3612   92.6378   11.8352 C.1     1  UNL1       -0.0571
     36 C          67.8186   91.1941   14.4249 C.3     1  UNL1        0.1502
     37 C          69.1413   92.1861   16.4290 C.3     1  UNL1        0.0904
     38 N          67.8416   91.9581   15.7155 N.3     1  UNL1       -0.2591
     39 C          66.5651   92.4941   16.2928 C.3     1  UNL1        0.0904
@<TRIPOS>BOND
     1    37    38    1
     2    38    39    1
     3    38    36    1
     4    36    34    1
     5    34    35    3
     6    35    25    1
     7    25    26   ar
     8    26    24    1
     9    24     1    1
    10     1     2   ar
    11     2     3   ar
    12     3     4   ar
    13     4     8    1
    14     8     9   am
    15     9    10    2
    16     9    11   am
    17    11    12   am
    18    12    13    2
    19    12    16    1
    20    16    17    1
    21    17    18   ar
    22    18    19   ar
    23    19    20   ar
    24    20    21    1
    25    20    22   ar
    26    22    23   ar
    27     4     5   ar
    28     5     6   ar
    29     6     7    1
    30    26    27   ar
    31    27    28   ar
    32    28    29   ar
    33    29    30   ar
    34    30    31    1
    35    30    25   ar
    36     6     1   ar
    37    23    17   ar
    38     8    14    1
    39    11    15    1
    40    31    32    1
    41    31    33    1
