@<TRIPOS>MOLECULE
*****
 36 40 0 0 0
SMALL
GASTEIGER

@<TRIPOS>ATOM
      1 C          64.1436   88.0342   14.2388 C.ar    1  UNL1        0.2383
      2 N          64.6610   86.7941   14.9054 N.ar    1  UNL1       -0.2093
      3 C          64.2839   85.4435   14.3730 C.ar    1  UNL1        0.1209
      4 C          63.3895   85.3330   13.1739 C.ar    1  UNL1        0.1021
      5 C          62.8512   84.1474   12.4291 C.ar    1  UNL1        0.0223
      6 C          62.0011   84.6548   11.3022 C.ar    1  UNL1        0.0208
      7 C          62.0140   86.1540   11.3506 C.ar    1  UNL1        0.0842
      8 N          62.8721   86.5731   12.5073 N.ar    1  UNL1       -0.2255
      9 N          63.2492   87.9237   13.0398 N.ar    1  UNL1       -0.1295
     10 C          61.2952   87.0728   10.4077 C.ar    1  UNL1        0.0326
     11 C          60.5255   88.2439   10.9425 C.ar    1  UNL1        0.0028
     12 C          59.8066   89.1626    9.9996 C.ar    1  UNL1        0.0001
     13 C          59.8574   88.9103    8.5218 C.ar    1  UNL1        0.0013
     14 C          60.6271   87.7392    7.9870 C.ar    1  UNL1        0.0162
     15 C          61.3459   86.8204    8.9299 C.ar    1  UNL1        0.0699
     16 N          62.1156   85.6493    8.3950 N.pl3   1  UNL1       -0.1925
     17 C          63.3599   85.1873    9.0938 C.3     1  UNL1        0.1388
     18 S          61.6410   84.9403    7.1614 S.O2    1  UNL1        0.0588
     19 C          61.1664   84.2312    5.9277 C.3     1  UNL1        0.1999
     20 O          60.2209   85.2587    7.5247 O.2     1  UNL1       -0.1542
     21 O          63.0611   84.6218    6.7981 O.2     1  UNL1       -0.1542
     22 N          64.5207   89.3850   14.7713 N.pl3   1  UNL1       -0.2814
     23 H          64.4509   89.5710   15.7355 H       1  UNL1        0.1551
     24 C          65.9711   92.5865   11.9613 C.ar    1  UNL1        0.0480
     25 C          64.6415   91.9317   11.7300 C.ar    1  UNL1        0.0158
     26 C          64.1580   90.8645   12.6667 C.ar    1  UNL1        0.0159
     27 C          65.0042   90.4521   13.8346 C.ar    1  UNL1        0.0506
     28 C          66.3337   91.1070   14.0659 C.ar    1  UNL1        0.0159
     29 C          66.8172   92.1742   13.1292 C.ar    1  UNL1        0.0158
     30 C          67.9049   96.8553    8.2146 C.3     1  UNL1        0.0897
     31 N          67.4215   95.7881    9.1512 N.3     1  UNL1       -0.2686
     32 C          66.6398   96.1626   10.3755 C.3     1  UNL1        0.0938
     33 C          66.1563   95.0954   11.3122 C.3     1  UNL1        0.1081
     34 N          66.4545   93.6537   11.0246 N.pl3   1  UNL1       -0.3046
     35 C          67.2362   93.2793    9.8003 C.3     1  UNL1        0.1081
     36 C          67.7196   94.3464    8.8637 C.3     1  UNL1        0.0938
@<TRIPOS>BOND
     1    30    31    1
     2    31    32    1
     3    32    33    1
     4    33    34    1
     5    34    24    1
     6    24    25   ar
     7    25    26   ar
     8    26    27   ar
     9    27    22    1
    10    22     1    1
    11     1     2   ar
    12     2     3   ar
    13     3     4   ar
    14     4     5   ar
    15     5     6   ar
    16     6     7   ar
    17     7    10    1
    18    10    11   ar
    19    11    12   ar
    20    12    13   ar
    21    13    14   ar
    22    14    15   ar
    23    15    16    1
    24    16    17    1
    25    16    18    1
    26    18    19    1
    27    18    20    2
    28    18    21    2
    29     7     8   ar
    30     8     9   ar
    31    27    28   ar
    32    28    29   ar
    33    34    35    1
    34    35    36    1
    35    36    31    1
    36    29    24   ar
    37     9     1   ar
    38     8     4   ar
    39    15    10   ar
    40    22    23    1
@<TRIPOS>MOLECULE
*****
 36 40 0 0 0
SMALL
GASTEIGER

@<TRIPOS>ATOM
      1 C          61.8113   88.9050   10.4533 C.ar    1  UNL1        0.2383
      2 N          61.1452   88.4785    9.1788 N.ar    1  UNL1       -0.2093
      3 C          61.0462   87.0217    8.8354 C.ar    1  UNL1        0.1209
      4 C          61.6134   85.9914    9.7664 C.ar    1  UNL1        0.1021
      5 C          61.6646   84.4940    9.6952 C.ar    1  UNL1        0.0223
      6 C          62.3624   83.9950   10.9257 C.ar    1  UNL1        0.0208
      7 C          62.7424   85.1841   11.7574 C.ar    1  UNL1        0.0842
      8 N          62.2795   86.4179   11.0409 N.ar    1  UNL1       -0.2255
      9 N          62.3785   87.8747   11.3843 N.ar    1  UNL1       -0.1295
     10 C          63.4594   85.1460   13.0743 C.ar    1  UNL1        0.0326
     11 C          63.8116   86.4253   13.7739 C.ar    1  UNL1        0.0028
     12 C          64.5286   86.3873   15.0908 C.ar    1  UNL1        0.0001
     13 C          64.8935   85.0699   15.7083 C.ar    1  UNL1        0.0013
     14 C          64.5414   83.7906   15.0088 C.ar    1  UNL1        0.0162
     15 C          63.8244   83.8286   13.6918 C.ar    1  UNL1        0.0699
     16 N          63.4722   82.5493   12.9924 N.pl3   1  UNL1       -0.1925
     17 C          64.2817   82.0904   11.8159 C.3     1  UNL1        0.1388
     18 S          62.3107   81.7289   13.4694 S.O2    1  UNL1        0.0588
     19 C          61.1491   80.9084   13.9465 C.3     1  UNL1        0.1999
     20 O          62.7103   80.6221   12.5392 O.2     1  UNL1       -0.1542
     21 O          61.9110   82.8356   14.3997 O.2     1  UNL1       -0.1542
     22 N          61.9103   90.3618   10.7967 N.pl3   1  UNL1       -0.2814
     23 H          61.1952   90.9814   10.5247 H       1  UNL1        0.1551
     24 C          65.4759   91.9002   13.0705 C.ar    1  UNL1        0.0480
     25 C          64.4919   90.9906   13.7446 C.ar    1  UNL1        0.0158
     26 C          63.3034   90.4778   12.9867 C.ar    1  UNL1        0.0159
     27 C          63.0988   90.8746   11.5546 C.ar    1  UNL1        0.0506
     28 C          64.0828   91.7842   10.8805 C.ar    1  UNL1        0.0159
     29 C          65.2714   92.2970   11.6385 C.ar    1  UNL1        0.0158
     30 C          70.2301   93.9514   16.1020 C.3     1  UNL1        0.0897
     31 N          69.0415   93.4386   15.3442 N.3     1  UNL1       -0.2686
     32 C          67.6629   93.9061   15.7056 C.3     1  UNL1        0.0938
     33 C          66.4743   93.3933   14.9477 C.3     1  UNL1        0.1081
     34 N          66.6644   92.4130   13.8284 N.pl3   1  UNL1       -0.3046
     35 C          68.0432   91.9455   13.4670 C.3     1  UNL1        0.1081
     36 C          69.2317   92.4583   14.2249 C.3     1  UNL1        0.0938
@<TRIPOS>BOND
     1    30    31    1
     2    31    32    1
     3    32    33    1
     4    33    34    1
     5    34    24    1
     6    24    25   ar
     7    25    26   ar
     8    26    27   ar
     9    27    22    1
    10    22     1    1
    11     1     2   ar
    12     2     3   ar
    13     3     4   ar
    14     4     5   ar
    15     5     6   ar
    16     6     7   ar
    17     7    10    1
    18    10    11   ar
    19    11    12   ar
    20    12    13   ar
    21    13    14   ar
    22    14    15   ar
    23    15    16    1
    24    16    17    1
    25    16    18    1
    26    18    19    1
    27    18    20    2
    28    18    21    2
    29     7     8   ar
    30     8     9   ar
    31    27    28   ar
    32    28    29   ar
    33    34    35    1
    34    35    36    1
    35    36    31    1
    36    29    24   ar
    37     9     1   ar
    38     8     4   ar
    39    15    10   ar
    40    22    23    1
@<TRIPOS>MOLECULE
*****
 36 40 0 0 0
SMALL
GASTEIGER

@<TRIPOS>ATOM
      1 C          63.2309   88.2896   16.0556 C.ar    1  UNL1        0.2383
      2 N          63.2898   87.5024   17.3310 N.ar    1  UNL1       -0.2093
      3 C          63.1764   86.0072   17.2954 C.ar    1  UNL1        0.1209
      4 C          63.0042   85.2991   15.9843 C.ar    1  UNL1        0.1021
      5 C          62.8655   83.8459   15.6390 C.ar    1  UNL1        0.0223
      6 C          62.7209   83.7350   14.1502 C.ar    1  UNL1        0.0208
      7 C          62.7702   85.1197   13.5753 C.ar    1  UNL1        0.0842
      8 N          62.9453   86.0863   14.7089 N.ar    1  UNL1       -0.2255
      9 N          63.0586   87.5815   14.7445 N.ar    1  UNL1       -0.1295
     10 C          62.6632   85.4753   12.1220 C.ar    1  UNL1        0.0326
     11 C          61.9675   86.7380   11.7080 C.ar    1  UNL1        0.0028
     12 C          61.8606   87.0936   10.2547 C.ar    1  UNL1        0.0001
     13 C          62.4493   86.1864    9.2153 C.ar    1  UNL1        0.0013
     14 C          63.1450   84.9236    9.6293 C.ar    1  UNL1        0.0162
     15 C          63.2520   84.5680   11.0826 C.ar    1  UNL1        0.0699
     16 N          63.9477   83.3053   11.4964 N.pl3   1  UNL1       -0.1925
     17 C          65.0495   83.3546   12.5131 C.3     1  UNL1        0.1388
     18 S          63.5416   81.9931   10.8937 S.O2    1  UNL1        0.0588
     19 C          63.1354   80.6810   10.2909 C.3     1  UNL1        0.1999
     20 O          64.7075   82.0645    9.9527 O.2     1  UNL1       -0.1542
     21 O          62.3756   81.9218   11.8346 O.2     1  UNL1       -0.1542
     22 N          63.3442   89.7849   16.0912 N.pl3   1  UNL1       -0.2814
     23 H          62.9855   90.2877   16.8579 H       1  UNL1        0.1551
     24 C          65.3240   91.9728   12.6936 C.ar    1  UNL1        0.0480
     25 C          65.9416   91.9939   14.0604 C.ar    1  UNL1        0.0158
     26 C          65.2817   91.2647   15.1929 C.ar    1  UNL1        0.0159
     27 C          64.0041   90.5142   14.9587 C.ar    1  UNL1        0.0506
     28 C          63.3866   90.4931   13.5919 C.ar    1  UNL1        0.0159
     29 C          64.0465   91.2225   12.4593 C.ar    1  UNL1        0.0158
     30 C          67.9637   94.8900    8.1635 C.3     1  UNL1        0.0897
     31 N          67.3038   94.1607    9.2960 N.3     1  UNL1       -0.2686
     32 C          66.1442   94.7840   10.0150 C.3     1  UNL1        0.0938
     33 C          65.4843   94.0547   11.1476 C.3     1  UNL1        0.1081
     34 N          65.9839   92.7021   11.5611 N.pl3   1  UNL1       -0.3046
     35 C          67.1435   92.0789   10.8421 C.3     1  UNL1        0.1081
     36 C          67.8034   92.8082    9.7095 C.3     1  UNL1        0.0938
@<TRIPOS>BOND
     1    30    31    1
     2    31    32    1
     3    32    33    1
     4    33    34    1
     5    34    24    1
     6    24    25   ar
     7    25    26   ar
     8    26    27   ar
     9    27    22    1
    10    22     1    1
    11     1     2   ar
    12     2     3   ar
    13     3     4   ar
    14     4     5   ar
    15     5     6   ar
    16     6     7   ar
    17     7    10    1
    18    10    11   ar
    19    11    12   ar
    20    12    13   ar
    21    13    14   ar
    22    14    15   ar
    23    15    16    1
    24    16    17    1
    25    16    18    1
    26    18    19    1
    27    18    20    2
    28    18    21    2
    29     7     8   ar
    30     8     9   ar
    31    27    28   ar
    32    28    29   ar
    33    34    35    1
    34    35    36    1
    35    36    31    1
    36    29    24   ar
    37     9     1   ar
    38     8     4   ar
    39    15    10   ar
    40    22    23    1
@<TRIPOS>MOLECULE
*****
 36 40 0 0 0
SMALL
GASTEIGER

@<TRIPOS>ATOM
      1 C          64.0864   87.8689   14.4773 C.ar    1  UNL1        0.2383
      2 N          64.6845   89.1388   15.0063 N.ar    1  UNL1       -0.2093
      3 C          64.6160   90.3963   14.1915 C.ar    1  UNL1        0.1209
      4 C          63.9493   90.3840   12.8478 C.ar    1  UNL1        0.1021
      5 C          63.7305   91.4602   11.8261 C.ar    1  UNL1        0.0223
      6 C          62.9972   90.8555   10.6657 C.ar    1  UNL1        0.0208
      7 C          62.7628   89.4056   10.9703 C.ar    1  UNL1        0.0842
      8 N          63.3512   89.1142   12.3189 N.ar    1  UNL1       -0.2255
      9 N          63.4197   87.8567   13.1337 N.ar    1  UNL1       -0.1295
     10 C          62.0628   88.4200   10.0822 C.ar    1  UNL1        0.0326
     11 C          62.8547   87.3847    9.3400 C.ar    1  UNL1        0.0028
     12 C          62.1547   86.3992    8.4520 C.ar    1  UNL1        0.0001
     13 C          60.6627   86.4490    8.3060 C.ar    1  UNL1        0.0013
     14 C          59.8707   87.4843    9.0482 C.ar    1  UNL1        0.0162
     15 C          60.5707   88.4698    9.9362 C.ar    1  UNL1        0.0699
     16 N          59.7786   89.5051   10.6784 N.pl3   1  UNL1       -0.1925
     17 C          59.5304   90.8475   10.0567 C.3     1  UNL1        0.1388
     18 S          59.2348   89.1980   12.0422 S.O2    1  UNL1        0.0588
     19 C          58.6910   88.8910   13.4060 C.3     1  UNL1        0.1999
     20 O          59.8456   87.8295   11.9776 O.2     1  UNL1       -0.1542
     21 O          58.6241   90.5665   12.1068 O.2     1  UNL1       -0.1542
     22 N          64.1549   86.6113   15.2921 N.pl3   1  UNL1       -0.2814
     23 H          64.3640   86.6581   16.2530 H       1  UNL1        0.1551
     24 C          63.4043   82.6248   13.3443 C.ar    1  UNL1        0.0480
     25 C          62.4291   83.1645   14.3482 C.ar    1  UNL1        0.0158
     26 C          62.6793   84.4933   14.9974 C.ar    1  UNL1        0.0159
     27 C          63.9047   85.2825   14.6429 C.ar    1  UNL1        0.0506
     28 C          64.8799   84.7427   13.6391 C.ar    1  UNL1        0.0159
     29 C          64.6297   83.4138   12.9898 C.ar    1  UNL1        0.0158
     30 C          62.4036   77.3094   10.7473 C.3     1  UNL1        0.0897
     31 N          62.6537   78.6382   11.3965 N.3     1  UNL1       -0.2686
     32 C          62.5109   78.7857   12.8824 C.3     1  UNL1        0.0938
     33 C          62.7611   80.1146   13.5317 C.3     1  UNL1        0.1081
     34 N          63.1541   81.2959   12.6951 N.pl3   1  UNL1       -0.3046
     35 C          63.2970   81.1484   11.2092 C.3     1  UNL1        0.1081
     36 C          63.0468   79.8196   10.5599 C.3     1  UNL1        0.0938
@<TRIPOS>BOND
     1    30    31    1
     2    31    32    1
     3    32    33    1
     4    33    34    1
     5    34    24    1
     6    24    25   ar
     7    25    26   ar
     8    26    27   ar
     9    27    22    1
    10    22     1    1
    11     1     2   ar
    12     2     3   ar
    13     3     4   ar
    14     4     5   ar
    15     5     6   ar
    16     6     7   ar
    17     7    10    1
    18    10    11   ar
    19    11    12   ar
    20    12    13   ar
    21    13    14   ar
    22    14    15   ar
    23    15    16    1
    24    16    17    1
    25    16    18    1
    26    18    19    1
    27    18    20    2
    28    18    21    2
    29     7     8   ar
    30     8     9   ar
    31    27    28   ar
    32    28    29   ar
    33    34    35    1
    34    35    36    1
    35    36    31    1
    36    29    24   ar
    37     9     1   ar
    38     8     4   ar
    39    15    10   ar
    40    22    23    1
@<TRIPOS>MOLECULE
*****
 36 40 0 0 0
SMALL
GASTEIGER

@<TRIPOS>ATOM
      1 C          59.3044   89.3671    7.4767 C.ar    1  UNL1        0.2383
      2 N          58.8132   87.9511    7.4159 N.ar    1  UNL1       -0.2093
      3 C          59.4208   86.9077    8.3058 C.ar    1  UNL1        0.1209
      4 C          60.5196   87.2802    9.2565 C.ar    1  UNL1        0.1021
      5 C          61.3048   86.4741   10.2484 C.ar    1  UNL1        0.0223
      6 C          62.2812   87.3919   10.9222 C.ar    1  UNL1        0.0208
      7 C          62.0995   88.7652   10.3468 C.ar    1  UNL1        0.0842
      8 N          61.0108   88.6961    9.3173 N.ar    1  UNL1       -0.2255
      9 N          60.4032   89.7396    8.4275 N.ar    1  UNL1       -0.1295
     10 C          62.8711   89.9922   10.7331 C.ar    1  UNL1        0.0326
     11 C          63.5433   90.8188    9.6772 C.ar    1  UNL1        0.0028
     12 C          64.3148   92.0458   10.0635 C.ar    1  UNL1        0.0001
     13 C          64.4143   92.4462   11.5056 C.ar    1  UNL1        0.0013
     14 C          63.7421   91.6195   12.5615 C.ar    1  UNL1        0.0162
     15 C          62.9705   90.3926   12.1752 C.ar    1  UNL1        0.0699
     16 N          62.2984   89.5660   13.2311 N.pl3   1  UNL1       -0.1925
     17 C          60.8215   89.3138   13.1590 C.3     1  UNL1        0.1388
     18 S          63.1031   88.9917   14.3592 S.O2    1  UNL1        0.0588
     19 C          63.9078   88.4173   15.4872 C.3     1  UNL1        0.1999
     20 O          62.3075   89.8018   15.3393 O.2     1  UNL1       -0.1542
     21 O          63.8987   88.1815   13.3791 O.2     1  UNL1       -0.1542
     22 N          58.6968   90.4106    6.5868 N.pl3   1  UNL1       -0.2814
     23 H          57.7661   90.6982    6.7297 H       1  UNL1        0.1551
     24 C          61.1279   92.2268    3.2640 C.ar    1  UNL1        0.0480
     25 C          61.7163   91.1428    4.1177 C.ar    1  UNL1        0.0158
     26 C          60.9059   90.5374    5.2253 C.ar    1  UNL1        0.0159
     27 C          59.5071   91.0160    5.4792 C.ar    1  UNL1        0.0506
     28 C          58.9188   92.1000    4.6255 C.ar    1  UNL1        0.0159
     29 C          59.7292   92.7054    3.5179 C.ar    1  UNL1        0.0158
     30 C          64.3694   94.6483   -1.1664 C.3     1  UNL1        0.0897
     31 N          63.5591   94.0429   -0.0588 N.3     1  UNL1       -0.2686
     32 C          62.0627   94.0086   -0.1568 C.3     1  UNL1        0.0938
     33 C          61.2522   93.4032    0.9509 C.3     1  UNL1        0.1081
     34 N          61.9383   92.8321    2.1564 N.pl3   1  UNL1       -0.3046
     35 C          63.4347   92.8665    2.2543 C.3     1  UNL1        0.1081
     36 C          64.2451   93.4719    1.1467 C.3     1  UNL1        0.0938
@<TRIPOS>BOND
     1    30    31    1
     2    31    32    1
     3    32    33    1
     4    33    34    1
     5    34    24    1
     6    24    25   ar
     7    25    26   ar
     8    26    27   ar
     9    27    22    1
    10    22     1    1
    11     1     2   ar
    12     2     3   ar
    13     3     4   ar
    14     4     5   ar
    15     5     6   ar
    16     6     7   ar
    17     7    10    1
    18    10    11   ar
    19    11    12   ar
    20    12    13   ar
    21    13    14   ar
    22    14    15   ar
    23    15    16    1
    24    16    17    1
    25    16    18    1
    26    18    19    1
    27    18    20    2
    28    18    21    2
    29     7     8   ar
    30     8     9   ar
    31    27    28   ar
    32    28    29   ar
    33    34    35    1
    34    35    36    1
    35    36    31    1
    36    29    24   ar
    37     9     1   ar
    38     8     4   ar
    39    15    10   ar
    40    22    23    1
@<TRIPOS>MOLECULE
*****
 36 40 0 0 0
SMALL
GASTEIGER

@<TRIPOS>ATOM
      1 C          63.6175   87.9566   13.9022 C.ar    1  UNL1        0.2383
      2 N          64.2929   87.1992   15.0068 N.ar    1  UNL1       -0.2093
      3 C          64.6135   85.7444   14.8316 C.ar    1  UNL1        0.1209
      4 C          64.2586   85.0470   13.5519 C.ar    1  UNL1        0.1021
      5 C          64.4485   83.6311   13.0944 C.ar    1  UNL1        0.0223
      6 C          63.8904   83.5135   11.7071 C.ar    1  UNL1        0.0208
      7 C          63.3555   84.8566   11.3072 C.ar    1  UNL1        0.0842
      8 N          63.5831   85.8044   12.4473 N.ar    1  UNL1       -0.2255
      9 N          63.2625   87.2592   12.6225 N.ar    1  UNL1       -0.1295
     10 C          62.7070   85.1930    9.9972 C.ar    1  UNL1        0.0326
     11 C          63.2137   84.5736    8.7285 C.ar    1  UNL1        0.0028
     12 C          62.5651   84.9100    7.4184 C.ar    1  UNL1        0.0001
     13 C          61.4098   85.8658    7.3770 C.ar    1  UNL1        0.0013
     14 C          60.9031   86.4852    8.6457 C.ar    1  UNL1        0.0162
     15 C          61.5517   86.1488    9.9558 C.ar    1  UNL1        0.0699
     16 N          61.0449   86.7683   11.2244 N.pl3   1  UNL1       -0.1925
     17 C          60.9858   85.9561   12.4841 C.3     1  UNL1        0.1388
     18 S          60.5973   88.1999   11.2333 S.O2    1  UNL1        0.0588
     19 C          60.1497   89.6315   11.2422 C.3     1  UNL1        0.1999
     20 O          59.4825   87.8455   12.1722 O.2     1  UNL1       -0.1542
     21 O          61.7122   88.5543   10.2945 O.2     1  UNL1       -0.1542
     22 N          63.2969   89.4115   14.0773 N.pl3   1  UNL1       -0.2814
     23 H          62.6414   89.6929   14.7559 H       1  UNL1        0.1551
     24 C          65.3310   92.4897   11.5011 C.ar    1  UNL1        0.0480
     25 C          64.1034   91.7868   11.0021 C.ar    1  UNL1        0.0158
     26 C          63.4254   90.7608   11.8608 C.ar    1  UNL1        0.0159
     27 C          63.9749   90.4376   13.2186 C.ar    1  UNL1        0.0506
     28 C          65.2024   91.1405   13.7177 C.ar    1  UNL1        0.0159
     29 C          65.8805   92.1666   12.8589 C.ar    1  UNL1        0.0158
     30 C          68.0432   96.5940    8.0663 C.3     1  UNL1        0.0897
     31 N          67.3651   95.5680    8.9250 N.3     1  UNL1       -0.2686
     32 C          67.8703   94.1558    8.9465 C.3     1  UNL1        0.0938
     33 C          67.1922   93.1297    9.8052 C.3     1  UNL1        0.1081
     34 N          66.0090   93.5158   10.6424 N.pl3   1  UNL1       -0.3046
     35 C          65.5039   94.9281   10.6209 C.3     1  UNL1        0.1081
     36 C          66.1819   95.9541    9.7622 C.3     1  UNL1        0.0938
@<TRIPOS>BOND
     1    30    31    1
     2    31    32    1
     3    32    33    1
     4    33    34    1
     5    34    24    1
     6    24    25   ar
     7    25    26   ar
     8    26    27   ar
     9    27    22    1
    10    22     1    1
    11     1     2   ar
    12     2     3   ar
    13     3     4   ar
    14     4     5   ar
    15     5     6   ar
    16     6     7   ar
    17     7    10    1
    18    10    11   ar
    19    11    12   ar
    20    12    13   ar
    21    13    14   ar
    22    14    15   ar
    23    15    16    1
    24    16    17    1
    25    16    18    1
    26    18    19    1
    27    18    20    2
    28    18    21    2
    29     7     8   ar
    30     8     9   ar
    31    27    28   ar
    32    28    29   ar
    33    34    35    1
    34    35    36    1
    35    36    31    1
    36    29    24   ar
    37     9     1   ar
    38     8     4   ar
    39    15    10   ar
    40    22    23    1
@<TRIPOS>MOLECULE
*****
 36 40 0 0 0
SMALL
GASTEIGER

@<TRIPOS>ATOM
      1 C          62.2092   87.2331   10.9534 C.ar    1  UNL1        0.2383
      2 N          62.5658   87.4181    9.5082 N.ar    1  UNL1       -0.2093
      3 C          62.9683   86.2355    8.6779 C.ar    1  UNL1        0.1209
      4 C          63.0143   84.8681    9.2927 C.ar    1  UNL1        0.1021
      5 C          63.3708   83.5250    8.7276 C.ar    1  UNL1        0.0223
      6 C          63.2345   82.5101    9.8237 C.ar    1  UNL1        0.0208
      7 C          62.7937   83.2259   11.0660 C.ar    1  UNL1        0.0842
      8 N          62.6577   84.6832   10.7379 N.ar    1  UNL1       -0.2255
      9 N          62.2551   85.8657   11.5682 N.ar    1  UNL1       -0.1295
     10 C          62.5346   82.5951   12.4020 C.ar    1  UNL1        0.0326
     11 C          61.4536   81.5656   12.5484 C.ar    1  UNL1        0.0028
     12 C          61.1944   80.9348   13.8844 C.ar    1  UNL1        0.0001
     13 C          62.0163   81.3335   15.0742 C.ar    1  UNL1        0.0013
     14 C          63.0974   82.3630   14.9278 C.ar    1  UNL1        0.0162
     15 C          63.3565   82.9938   13.5918 C.ar    1  UNL1        0.0699
     16 N          64.4376   84.0233   13.4455 N.pl3   1  UNL1       -0.1925
     17 C          65.3976   83.9446   12.2956 C.3     1  UNL1        0.1388
     18 S          64.5586   85.1315   14.4491 S.O2    1  UNL1        0.0588
     19 C          64.6797   86.2397   15.4528 C.3     1  UNL1        0.1999
     20 O          66.0397   84.9051   14.5204 O.2     1  UNL1       -0.1542
     21 O          63.0775   85.3578   14.3779 O.2     1  UNL1       -0.1542
     22 N          61.8066   88.4157   11.7838 N.pl3   1  UNL1       -0.2814
     23 H          60.8532   88.6162   11.9252 H       1  UNL1        0.1551
     24 C          64.9569   91.0466   13.6288 C.ar    1  UNL1        0.0480
     25 C          64.6601   89.7020   14.2237 C.ar    1  UNL1        0.0158
     26 C          63.6101   88.8250   13.6087 C.ar    1  UNL1        0.0159
     27 C          62.8567   89.2927   12.3988 C.ar    1  UNL1        0.0506
     28 C          63.1534   90.6373   11.8039 C.ar    1  UNL1        0.0159
     29 C          64.2036   91.5143   12.4190 C.ar    1  UNL1        0.0158
     30 C          69.1572   94.5545   16.0887 C.3     1  UNL1        0.0897
     31 N          68.1072   93.6775   15.4738 N.3     1  UNL1       -0.2686
     32 C          67.1910   94.2293   14.4220 C.3     1  UNL1        0.0938
     33 C          66.1409   93.3523   13.8070 C.3     1  UNL1        0.1081
     34 N          66.0070   91.9236   14.2438 N.pl3   1  UNL1       -0.3046
     35 C          66.9232   91.3718   15.2956 C.3     1  UNL1        0.1081
     36 C          67.9732   92.2488   15.9106 C.3     1  UNL1        0.0938
@<TRIPOS>BOND
     1    30    31    1
     2    31    32    1
     3    32    33    1
     4    33    34    1
     5    34    24    1
     6    24    25   ar
     7    25    26   ar
     8    26    27   ar
     9    27    22    1
    10    22     1    1
    11     1     2   ar
    12     2     3   ar
    13     3     4   ar
    14     4     5   ar
    15     5     6   ar
    16     6     7   ar
    17     7    10    1
    18    10    11   ar
    19    11    12   ar
    20    12    13   ar
    21    13    14   ar
    22    14    15   ar
    23    15    16    1
    24    16    17    1
    25    16    18    1
    26    18    19    1
    27    18    20    2
    28    18    21    2
    29     7     8   ar
    30     8     9   ar
    31    27    28   ar
    32    28    29   ar
    33    34    35    1
    34    35    36    1
    35    36    31    1
    36    29    24   ar
    37     9     1   ar
    38     8     4   ar
    39    15    10   ar
    40    22    23    1
@<TRIPOS>MOLECULE
*****
 36 40 0 0 0
SMALL
GASTEIGER

@<TRIPOS>ATOM
      1 C          61.0433   96.5931   -5.3201 C.ar    1  UNL1        0.2383
      2 N          61.3567   96.7373   -6.7799 N.ar    1  UNL1       -0.2093
      3 C          62.7756   96.6371   -7.2558 C.ar    1  UNL1        0.1209
      4 C          63.8812   96.3927   -6.2719 C.ar    1  UNL1        0.1021
      5 C          65.3643   96.2481   -6.4441 C.ar    1  UNL1        0.0223
      6 C          65.9675   96.0144   -5.0908 C.ar    1  UNL1        0.0208
      7 C          64.8572   96.0147   -4.0822 C.ar    1  UNL1        0.0842
      8 N          63.5678   96.2485   -4.8121 N.ar    1  UNL1       -0.2255
      9 N          62.1489   96.3487   -4.3362 N.ar    1  UNL1       -0.1295
     10 C          65.0095   95.8161   -2.6032 C.ar    1  UNL1        0.0326
     11 C          65.7569   96.8259   -1.7838 C.ar    1  UNL1        0.0028
     12 C          65.9093   96.6273   -0.3049 C.ar    1  UNL1        0.0001
     13 C          65.3141   95.4187    0.3548 C.ar    1  UNL1        0.0013
     14 C          64.5667   94.4089   -0.4646 C.ar    1  UNL1        0.0162
     15 C          64.4143   94.6075   -1.9435 C.ar    1  UNL1        0.0699
     16 N          63.6669   93.5975   -2.7628 N.pl3   1  UNL1       -0.1925
     17 C          64.4175   92.6374   -3.6372 C.3     1  UNL1        0.1388
     18 S          62.1687   93.5478   -2.7078 S.O2    1  UNL1        0.0588
     19 C          60.6706   93.4980   -2.6527 C.3     1  UNL1        0.1999
     20 O          62.2174   93.7289   -1.2195 O.2     1  UNL1       -0.1542
     21 O          62.1200   93.3667   -4.1960 O.2     1  UNL1       -0.1542
     22 N          59.6243   96.6933   -4.8441 N.pl3   1  UNL1       -0.2814
     23 H          59.2765   97.5517   -4.5105 H       1  UNL1        0.1551
     24 C          56.9574   93.0700   -4.9412 C.ar    1  UNL1        0.0480
     25 C          57.9292   93.3161   -6.0571 C.ar    1  UNL1        0.0158
     26 C          58.8182   94.5238   -6.0247 C.ar    1  UNL1        0.0159
     27 C          58.7354   95.4855   -4.8765 C.ar    1  UNL1        0.0506
     28 C          57.7636   95.2394   -3.7607 C.ar    1  UNL1        0.0159
     29 C          56.8746   94.0316   -3.7931 C.ar    1  UNL1        0.0158
     30 C          53.4016   88.2390   -5.0706 C.3     1  UNL1        0.0897
     31 N          54.2905   89.4467   -5.0383 N.3     1  UNL1       -0.2686
     32 C          54.4673   90.2810   -6.2722 C.3     1  UNL1        0.0938
     33 C          55.3563   91.4888   -6.2399 C.3     1  UNL1        0.1081
     34 N          56.0685   91.8622   -4.9736 N.pl3   1  UNL1       -0.3046
     35 C          55.8916   91.0278   -3.7396 C.3     1  UNL1        0.1081
     36 C          55.0027   89.8201   -3.7720 C.3     1  UNL1        0.0938
@<TRIPOS>BOND
     1    30    31    1
     2    31    32    1
     3    32    33    1
     4    33    34    1
     5    34    24    1
     6    24    25   ar
     7    25    26   ar
     8    26    27   ar
     9    27    22    1
    10    22     1    1
    11     1     2   ar
    12     2     3   ar
    13     3     4   ar
    14     4     5   ar
    15     5     6   ar
    16     6     7   ar
    17     7    10    1
    18    10    11   ar
    19    11    12   ar
    20    12    13   ar
    21    13    14   ar
    22    14    15   ar
    23    15    16    1
    24    16    17    1
    25    16    18    1
    26    18    19    1
    27    18    20    2
    28    18    21    2
    29     7     8   ar
    30     8     9   ar
    31    27    28   ar
    32    28    29   ar
    33    34    35    1
    34    35    36    1
    35    36    31    1
    36    29    24   ar
    37     9     1   ar
    38     8     4   ar
    39    15    10   ar
    40    22    23    1
@<TRIPOS>MOLECULE
*****
 36 40 0 0 0
SMALL
GASTEIGER

@<TRIPOS>ATOM
      1 C          58.1393   94.1968   -6.5268 C.ar    1  UNL1        0.2383
      2 N          57.3495   93.1133   -7.1992 N.ar    1  UNL1       -0.2093
      3 C          56.6446   92.0773   -6.3747 C.ar    1  UNL1        0.1209
      4 C          56.7295   92.1247   -4.8779 C.ar    1  UNL1        0.1021
      5 C          56.1450   91.2470   -3.8111 C.ar    1  UNL1        0.0223
      6 C          56.5736   91.7881   -2.4794 C.ar    1  UNL1        0.0208
      7 C          57.4230   93.0001   -2.7231 C.ar    1  UNL1        0.0842
      8 N          57.5194   93.2082   -4.2055 N.ar    1  UNL1       -0.2255
      9 N          58.2243   94.2442   -5.0299 N.ar    1  UNL1       -0.1295
     10 C          58.0636   93.8542   -1.6695 C.ar    1  UNL1        0.0326
     11 C          59.1055   93.2705   -0.7620 C.ar    1  UNL1        0.0028
     12 C          59.7461   94.1246    0.2917 C.ar    1  UNL1        0.0001
     13 C          59.3448   95.5625    0.4378 C.ar    1  UNL1        0.0013
     14 C          58.3030   96.1463   -0.4698 C.ar    1  UNL1        0.0162
     15 C          57.6624   95.2922   -1.5234 C.ar    1  UNL1        0.0699
     16 N          56.6205   95.8760   -2.4309 N.pl3   1  UNL1       -0.1925
     17 C          57.0340   96.6730   -3.6325 C.3     1  UNL1        0.1388
     18 S          55.1651   95.6628   -2.1368 S.O2    1  UNL1        0.0588
     19 C          53.7098   95.4496   -1.8428 C.3     1  UNL1        0.1999
     20 O          54.9542   95.1701   -3.5378 O.2     1  UNL1       -0.1542
     21 O          55.3760   96.1555   -0.7359 O.2     1  UNL1       -0.1542
     22 N          58.8443   95.2329   -7.3512 N.pl3   1  UNL1       -0.2814
     23 H          58.3232   95.8730   -7.8878 H       1  UNL1        0.1551
     24 C          63.3405   95.4149   -7.3716 C.ar    1  UNL1        0.0480
     25 C          62.6424   94.0990   -7.5473 C.ar    1  UNL1        0.0158
     26 C          61.1437   94.0383   -7.5405 C.ar    1  UNL1        0.0159
     27 C          60.3430   95.2936   -7.3580 C.ar    1  UNL1        0.0506
     28 C          61.0411   96.6095   -7.1823 C.ar    1  UNL1        0.0159
     29 C          62.5399   96.6702   -7.1891 C.ar    1  UNL1        0.0158
     30 C          69.3355   95.6578   -7.3988 C.3     1  UNL1        0.0897
     31 N          67.8368   95.5971   -7.3920 N.3     1  UNL1       -0.2686
     32 C          67.1403   94.2794   -7.2230 C.3     1  UNL1        0.0938
     33 C          65.6415   94.2187   -7.2162 C.3     1  UNL1        0.1081
     34 N          64.8392   95.4757   -7.3784 N.pl3   1  UNL1       -0.3046
     35 C          65.5358   96.7934   -7.5474 C.3     1  UNL1        0.1081
     36 C          67.0345   96.8541   -7.5542 C.3     1  UNL1        0.0938
@<TRIPOS>BOND
     1    30    31    1
     2    31    32    1
     3    32    33    1
     4    33    34    1
     5    34    24    1
     6    24    25   ar
     7    25    26   ar
     8    26    27   ar
     9    27    22    1
    10    22     1    1
    11     1     2   ar
    12     2     3   ar
    13     3     4   ar
    14     4     5   ar
    15     5     6   ar
    16     6     7   ar
    17     7    10    1
    18    10    11   ar
    19    11    12   ar
    20    12    13   ar
    21    13    14   ar
    22    14    15   ar
    23    15    16    1
    24    16    17    1
    25    16    18    1
    26    18    19    1
    27    18    20    2
    28    18    21    2
    29     7     8   ar
    30     8     9   ar
    31    27    28   ar
    32    28    29   ar
    33    34    35    1
    34    35    36    1
    35    36    31    1
    36    29    24   ar
    37     9     1   ar
    38     8     4   ar
    39    15    10   ar
    40    22    23    1
