@<TRIPOS>MOLECULE
*****
 26 28 0 0 0
SMALL
GASTEIGER

@<TRIPOS>ATOM
      1 C          65.5215   90.8545   14.3237 C.3     1  UNL1        0.1350
      2 O          66.1986   89.6730   14.9527 O.3     1  UNL1       -0.3803
      3 H          65.6352   88.8891   14.8576 H       1  UNL1        0.2108
      4 C          66.6849   91.7225   14.7019 C.ar    1  UNL1        0.0315
      5 C          67.9480   91.6777   13.8942 C.ar    1  UNL1        0.0026
      6 C          69.1114   92.5457   14.2725 C.ar    1  UNL1        0.0295
      7 C          69.0116   93.4586   15.4585 C.ar    1  UNL1        0.1424
      8 F          70.1750   94.3266   15.8368 F       1  UNL1       -0.2041
      9 C          67.7485   93.5035   16.2663 C.ar    1  UNL1        0.0590
     10 C          66.5851   92.6354   15.8880 C.ar    1  UNL1        0.1406
     11 F          65.3220   92.6803   16.6957 F       1  UNL1       -0.2044
     12 C          63.4802   89.9894   12.9199 C.3     1  UNL1        0.0092
     13 C          64.3582   89.9865   13.9454 C.3     1  UNL1        0.0731
     14 C          63.9779   88.8224   14.8118 C.ar    1  UNL1        0.0919
     15 N          64.1898   87.4211   14.3205 N.ar    1  UNL1       -0.2260
     16 C          63.8096   86.2572   15.1869 C.ar    1  UNL1        0.1987
     17 N          63.2175   86.4946   16.5445 N.ar    1  UNL1       -0.2201
     18 C          63.0056   87.8959   17.0357 C.ar    1  UNL1        0.1314
     19 C          63.3859   89.0598   16.1694 C.ar    1  UNL1        0.1727
     20 F          63.1740   90.4613   16.6606 F       1  UNL1       -0.2013
     21 C          64.8445   92.0360   13.6947 C.3     1  UNL1        0.1390
     22 N          65.4882   92.7411   12.5378 N.ar    1  UNL1       -0.3050
     23 C          65.5640   92.2345   11.1280 C.ar    1  UNL1        0.0981
     24 C          66.2918   93.2570   10.3065 C.ar    1  UNL1        0.1193
     25 N          66.6658   94.3956   11.2085 N.ar    1  UNL1       -0.2223
     26 C          66.1691   94.0768   12.5875 C.ar    1  UNL1        0.1787
@<TRIPOS>BOND
     1    13    12    1
     2    13    14    1
     3    14    15   ar
     4    15    16   ar
     5    16    17   ar
     6    17    18   ar
     7    18    19   ar
     8    19    20    1
     9    13     1    1
    10     1     2    1
    11     1    21    1
    12    21    22    1
    13    22    23   ar
    14    23    24   ar
    15    24    25   ar
    16    25    26   ar
    17     1     4    1
    18     4     5   ar
    19     5     6   ar
    20     6     7   ar
    21     7     8    1
    22     7     9   ar
    23     9    10   ar
    24    10    11    1
    25    19    14   ar
    26    26    22   ar
    27    10     4   ar
    28     2     3    1
@<TRIPOS>MOLECULE
*****
 26 28 0 0 0
SMALL
GASTEIGER

@<TRIPOS>ATOM
      1 C          63.5543   85.0638   12.5614 C.3     1  UNL1        0.1350
      2 O          63.1727   86.4835   12.8595 O.3     1  UNL1       -0.3803
      3 H          63.4851   86.7229   13.7460 H       1  UNL1        0.2108
      4 C          62.9071   85.1730   11.2126 C.ar    1  UNL1        0.0315
      5 C          61.6545   85.9809   11.0451 C.ar    1  UNL1        0.0026
      6 C          61.0072   86.0901    9.6963 C.ar    1  UNL1        0.0295
      7 C          61.6126   85.3914    8.5151 C.ar    1  UNL1        0.1424
      8 F          60.9654   85.5006    7.1664 F       1  UNL1       -0.2041
      9 C          62.8653   84.5834    8.6827 C.ar    1  UNL1        0.0590
     10 C          63.5125   84.4742   10.0314 C.ar    1  UNL1        0.1406
     11 F          64.7651   83.6662   10.1990 F       1  UNL1       -0.2044
     12 C          65.2432   84.2466   14.3959 C.3     1  UNL1        0.0092
     13 C          64.2015   84.9546   13.9102 C.3     1  UNL1        0.0731
     14 C          63.6729   85.7559   15.0628 C.ar    1  UNL1        0.0919
     15 N          63.9990   87.2158   15.1735 N.ar    1  UNL1       -0.2260
     16 C          63.4704   88.0170   16.3261 C.ar    1  UNL1        0.1987
     17 N          62.6156   87.3584   17.3680 N.ar    1  UNL1       -0.2201
     18 C          62.2895   85.8985   17.2573 C.ar    1  UNL1        0.1314
     19 C          62.8181   85.0972   16.1047 C.ar    1  UNL1        0.1727
     20 F          62.4920   83.6373   15.9940 F       1  UNL1       -0.2013
     21 C          63.9359   83.6441   12.2634 C.3     1  UNL1        0.1390
     22 N          63.2357   82.5167   12.9625 N.ar    1  UNL1       -0.3050
     23 C          61.7726   82.4535   13.2870 C.ar    1  UNL1        0.0981
     24 C          61.5085   81.1522   13.9850 C.ar    1  UNL1        0.1193
     25 N          62.8083   80.4113   14.0918 N.ar    1  UNL1       -0.2223
     26 C          63.8758   81.2545   13.4599 C.ar    1  UNL1        0.1787
@<TRIPOS>BOND
     1    13    12    1
     2    13    14    1
     3    14    15   ar
     4    15    16   ar
     5    16    17   ar
     6    17    18   ar
     7    18    19   ar
     8    19    20    1
     9    13     1    1
    10     1     2    1
    11     1    21    1
    12    21    22    1
    13    22    23   ar
    14    23    24   ar
    15    24    25   ar
    16    25    26   ar
    17     1     4    1
    18     4     5   ar
    19     5     6   ar
    20     6     7   ar
    21     7     8    1
    22     7     9   ar
    23     9    10   ar
    24    10    11    1
    25    19    14   ar
    26    26    22   ar
    27    10     4   ar
    28     2     3    1
@<TRIPOS>MOLECULE
*****
 26 28 0 0 0
SMALL
GASTEIGER

@<TRIPOS>ATOM
      1 C          61.9186   87.6071   11.4412 C.3     1  UNL1        0.1350
      2 O          63.3191   87.8947   11.8951 O.3     1  UNL1       -0.3803
      3 H          63.3744   88.8093   12.2135 H       1  UNL1        0.2108
      4 C          62.3230   86.2087   11.0795 C.ar    1  UNL1        0.0315
      5 C          62.2624   85.1202   12.1099 C.ar    1  UNL1        0.0026
      6 C          62.6668   83.7218   11.7482 C.ar    1  UNL1        0.0295
      7 C          63.1319   83.4118   10.3562 C.ar    1  UNL1        0.1424
      8 F          63.5363   82.0133    9.9946 F       1  UNL1       -0.2041
      9 C          63.1925   84.5002    9.3258 C.ar    1  UNL1        0.0590
     10 C          62.7881   85.8987    9.6875 C.ar    1  UNL1        0.1406
     11 F          62.8487   86.9871    8.6572 F       1  UNL1       -0.2044
     12 C          60.3378   89.6675   11.8175 C.3     1  UNL1        0.0092
     13 C          61.5142   89.0055   11.8029 C.3     1  UNL1        0.0731
     14 C          62.5477   89.9889   12.2667 C.ar    1  UNL1        0.0919
     15 N          62.9195   90.0576   13.7182 N.ar    1  UNL1       -0.2260
     16 C          63.9529   91.0410   14.1819 C.ar    1  UNL1        0.1987
     17 N          64.6145   91.9556   13.1941 N.ar    1  UNL1       -0.2201
     18 C          64.2427   91.8869   11.7426 C.ar    1  UNL1        0.1314
     19 C          63.2093   90.9036   11.2789 C.ar    1  UNL1        0.1727
     20 F          62.8374   90.8348    9.8273 F       1  UNL1       -0.2013
     21 C          60.5182   87.3195   10.9873 C.3     1  UNL1        0.1390
     22 N          60.1041   87.6421    9.5822 N.ar    1  UNL1       -0.3050
     23 C          60.2772   88.9633    8.8932 C.ar    1  UNL1        0.0981
     24 C          59.7242   88.8378    7.5045 C.ar    1  UNL1        0.1193
     25 N          59.2093   87.4392    7.3351 N.ar    1  UNL1       -0.2223
     26 C          59.4440   86.7002    8.6192 C.ar    1  UNL1        0.1787
@<TRIPOS>BOND
     1    13    12    1
     2    13    14    1
     3    14    15   ar
     4    15    16   ar
     5    16    17   ar
     6    17    18   ar
     7    18    19   ar
     8    19    20    1
     9    13     1    1
    10     1     2    1
    11     1    21    1
    12    21    22    1
    13    22    23   ar
    14    23    24   ar
    15    24    25   ar
    16    25    26   ar
    17     1     4    1
    18     4     5   ar
    19     5     6   ar
    20     6     7   ar
    21     7     8    1
    22     7     9   ar
    23     9    10   ar
    24    10    11    1
    25    19    14   ar
    26    26    22   ar
    27    10     4   ar
    28     2     3    1
@<TRIPOS>MOLECULE
*****
 26 28 0 0 0
SMALL
GASTEIGER

@<TRIPOS>ATOM
      1 C          64.0257   84.6302   13.4984 C.3     1  UNL1        0.1350
      2 O          65.4152   84.3852   14.0077 O.3     1  UNL1       -0.3803
      3 H          65.8340   83.6865   13.4811 H       1  UNL1        0.2108
      4 C          63.8299   85.6896   14.5421 C.ar    1  UNL1        0.0315
      5 C          64.3122   87.0876   14.2914 C.ar    1  UNL1        0.0026
      6 C          64.1164   88.1470   15.3351 C.ar    1  UNL1        0.0295
      7 C          63.4384   87.8084   16.6296 C.ar    1  UNL1        0.1424
      8 F          63.2426   88.8678   17.6733 F       1  UNL1       -0.2041
      9 C          62.9561   86.4103   16.8803 C.ar    1  UNL1        0.0590
     10 C          63.1518   85.3509   15.8366 C.ar    1  UNL1        0.1406
     11 F          62.6695   83.9529   16.0873 F       1  UNL1       -0.2044
     12 C          64.8705   83.5282   11.2718 C.3     1  UNL1        0.0092
     13 C          64.2214   83.5708   12.4547 C.3     1  UNL1        0.0731
     14 C          63.6147   82.2118   12.6425 C.ar    1  UNL1        0.0919
     15 N          63.4317   81.6564   14.0238 N.ar    1  UNL1       -0.2260
     16 C          62.8250   80.2975   14.2114 C.ar    1  UNL1        0.1987
     17 N          62.4013   79.4940   13.0178 N.ar    1  UNL1       -0.2201
     18 C          62.5842   80.0494   11.6365 C.ar    1  UNL1        0.1314
     19 C          63.1909   81.4083   11.4488 C.ar    1  UNL1        0.1727
     20 F          63.3739   81.9637   10.0675 F       1  UNL1       -0.2013
     21 C          62.6362   84.8751   12.9892 C.3     1  UNL1        0.1390
     22 N          62.4264   85.6703   11.7348 N.ar    1  UNL1       -0.3050
     23 C          62.0855   85.1133   10.3844 C.ar    1  UNL1        0.0981
     24 C          61.9692   86.2611    9.4256 C.ar    1  UNL1        0.1193
     25 N          62.2381   87.5273   10.1833 N.ar    1  UNL1       -0.2223
     26 C          62.5207   87.1623   11.6105 C.ar    1  UNL1        0.1787
@<TRIPOS>BOND
     1    13    12    1
     2    13    14    1
     3    14    15   ar
     4    15    16   ar
     5    16    17   ar
     6    17    18   ar
     7    18    19   ar
     8    19    20    1
     9    13     1    1
    10     1     2    1
    11     1    21    1
    12    21    22    1
    13    22    23   ar
    14    23    24   ar
    15    24    25   ar
    16    25    26   ar
    17     1     4    1
    18     4     5   ar
    19     5     6   ar
    20     6     7   ar
    21     7     8    1
    22     7     9   ar
    23     9    10   ar
    24    10    11    1
    25    19    14   ar
    26    26    22   ar
    27    10     4   ar
    28     2     3    1
@<TRIPOS>MOLECULE
*****
 26 28 0 0 0
SMALL
GASTEIGER

@<TRIPOS>ATOM
      1 C          58.8877   93.3162   -0.0799 C.3     1  UNL1        0.1350
      2 O          58.6862   91.8744   -0.4414 O.3     1  UNL1       -0.3803
      3 H          57.9625   91.8000   -1.0829 H       1  UNL1        0.2108
      4 C          60.0035   92.9285    0.8446 C.ar    1  UNL1        0.0315
      5 C          59.7840   92.9330    2.3284 C.ar    1  UNL1        0.0026
      6 C          60.8998   92.5453    3.2528 C.ar    1  UNL1        0.0295
      7 C          62.2352   92.1531    2.6934 C.ar    1  UNL1        0.1424
      8 F          63.3511   91.7654    3.6179 F       1  UNL1       -0.2041
      9 C          62.4548   92.1486    1.2096 C.ar    1  UNL1        0.0590
     10 C          61.3390   92.5363    0.2851 C.ar    1  UNL1        0.1406
     11 F          61.5585   92.5318   -1.1987 F       1  UNL1       -0.2044
     12 C          57.0202   94.8153   -1.1526 C.3     1  UNL1        0.0092
     13 C          57.7718   93.7039   -1.0043 C.3     1  UNL1        0.0731
     14 C          57.2862   92.7349   -2.0414 C.ar    1  UNL1        0.0919
     15 N          56.1303   91.8285   -1.7379 N.ar    1  UNL1       -0.2260
     16 C          55.6446   90.8596   -2.7749 C.ar    1  UNL1        0.1987
     17 N          56.3149   90.7973   -4.1154 N.ar    1  UNL1       -0.2201
     18 C          57.4708   91.7037   -4.4189 C.ar    1  UNL1        0.1314
     19 C          57.9564   92.6726   -3.3818 C.ar    1  UNL1        0.1727
     20 F          59.1124   93.5791   -3.6853 F       1  UNL1       -0.2013
     21 C          59.0892   94.7580    0.2816 C.3     1  UNL1        0.1390
     22 N          60.2939   95.4962   -0.2221 N.ar    1  UNL1       -0.3050
     23 C          60.6830   95.6716   -1.6601 C.ar    1  UNL1        0.0981
     24 C          61.9506   96.4725   -1.7028 C.ar    1  UNL1        0.1193
     25 N          62.3450   96.7920   -0.2913 N.ar    1  UNL1       -0.2223
     26 C          61.3211   96.1886    0.6239 C.ar    1  UNL1        0.1787
@<TRIPOS>BOND
     1    13    12    1
     2    13    14    1
     3    14    15   ar
     4    15    16   ar
     5    16    17   ar
     6    17    18   ar
     7    18    19   ar
     8    19    20    1
     9    13     1    1
    10     1     2    1
    11     1    21    1
    12    21    22    1
    13    22    23   ar
    14    23    24   ar
    15    24    25   ar
    16    25    26   ar
    17     1     4    1
    18     4     5   ar
    19     5     6   ar
    20     6     7   ar
    21     7     8    1
    22     7     9   ar
    23     9    10   ar
    24    10    11    1
    25    19    14   ar
    26    26    22   ar
    27    10     4   ar
    28     2     3    1
@<TRIPOS>MOLECULE
*****
 26 28 0 0 0
SMALL
GASTEIGER

@<TRIPOS>ATOM
      1 C          63.4823   84.9134   12.3121 C.3     1  UNL1        0.1350
      2 O          63.1329   86.3390   12.6214 O.3     1  UNL1       -0.3803
      3 H          63.4084   86.5502   13.5272 H       1  UNL1        0.2108
      4 C          62.9070   85.0710   10.9358 C.ar    1  UNL1        0.0315
      5 C          63.6146   84.4762    9.7545 C.ar    1  UNL1        0.0026
      6 C          63.0393   84.6338    8.3782 C.ar    1  UNL1        0.0295
      7 C          61.7564   85.3862    8.1832 C.ar    1  UNL1        0.1424
      8 F          61.1811   85.5438    6.8069 F       1  UNL1       -0.2041
      9 C          61.0487   85.9810    9.3646 C.ar    1  UNL1        0.0590
     10 C          61.6240   85.8234   10.7409 C.ar    1  UNL1        0.1406
     11 F          60.9164   86.4182   11.9222 F       1  UNL1       -0.2044
     12 C          65.1304   84.1060   14.1877 C.3     1  UNL1        0.0092
     13 C          64.0576   84.7558   13.6884 C.3     1  UNL1        0.0731
     14 C          63.3913   85.4146   14.8598 C.ar    1  UNL1        0.0919
     15 N          62.1108   84.8560   15.4060 N.ar    1  UNL1       -0.2260
     16 C          61.4445   85.5147   16.5773 C.ar    1  UNL1        0.1987
     17 N          62.0587   86.7321   17.2025 N.ar    1  UNL1       -0.2201
     18 C          63.3391   87.2907   16.6563 C.ar    1  UNL1        0.1314
     19 C          64.0054   86.6319   15.4850 C.ar    1  UNL1        0.1727
     20 F          65.2859   87.1906   14.9388 F       1  UNL1       -0.2013
     21 C          63.8317   83.4878   12.0028 C.3     1  UNL1        0.1390
     22 N          63.1806   82.3733   12.7670 N.ar    1  UNL1       -0.3050
     23 C          61.7128   82.2329   13.0422 C.ar    1  UNL1        0.0981
     24 C          61.5081   80.9762   13.8354 C.ar    1  UNL1        0.1193
     25 N          62.8494   80.3401   14.0504 N.ar    1  UNL1       -0.2223
     26 C          63.8831   81.2035   13.3901 C.ar    1  UNL1        0.1787
@<TRIPOS>BOND
     1    13    12    1
     2    13    14    1
     3    14    15   ar
     4    15    16   ar
     5    16    17   ar
     6    17    18   ar
     7    18    19   ar
     8    19    20    1
     9    13     1    1
    10     1     2    1
    11     1    21    1
    12    21    22    1
    13    22    23   ar
    14    23    24   ar
    15    24    25   ar
    16    25    26   ar
    17     1     4    1
    18     4     5   ar
    19     5     6   ar
    20     6     7   ar
    21     7     8    1
    22     7     9   ar
    23     9    10   ar
    24    10    11    1
    25    19    14   ar
    26    26    22   ar
    27    10     4   ar
    28     2     3    1
@<TRIPOS>MOLECULE
*****
 26 28 0 0 0
SMALL
GASTEIGER

@<TRIPOS>ATOM
      1 C          62.2848   85.9664   11.0881 C.3     1  UNL1        0.1350
      2 O          61.7388   85.6834   12.4562 O.3     1  UNL1       -0.3803
      3 H          62.0542   84.8170   12.7573 H       1  UNL1        0.2108
      4 C          61.5743   87.2875   11.0778 C.ar    1  UNL1        0.0315
      5 C          60.1870   87.3886   10.5164 C.ar    1  UNL1        0.0026
      6 C          59.4766   88.7096   10.5062 C.ar    1  UNL1        0.0295
      7 C          60.1534   89.9295   11.0572 C.ar    1  UNL1        0.1424
      8 F          59.4429   91.2506   11.0470 F       1  UNL1       -0.2041
      9 C          61.5407   89.8284   11.6186 C.ar    1  UNL1        0.0590
     10 C          62.2512   88.5074   11.6289 C.ar    1  UNL1        0.1406
     11 F          63.6385   88.4063   12.1902 F       1  UNL1       -0.2044
     12 C          63.4672   83.8269   10.1342 C.3     1  UNL1        0.0092
     13 C          62.9952   84.6454   11.0983 C.3     1  UNL1        0.0731
     14 C          63.3133   83.9750   12.4020 C.ar    1  UNL1        0.0919
     15 N          64.1568   84.6806   13.4220 N.ar    1  UNL1       -0.2260
     16 C          64.4748   84.0102   14.7256 C.ar    1  UNL1        0.1987
     17 N          63.9494   82.6342   15.0091 N.ar    1  UNL1       -0.2201
     18 C          63.1059   81.9285   13.9891 C.ar    1  UNL1        0.1314
     19 C          62.7879   82.5989   12.6855 C.ar    1  UNL1        0.1727
     20 F          61.9443   81.8933   11.6654 F       1  UNL1       -0.2013
     21 C          62.8308   86.2494    9.7199 C.3     1  UNL1        0.1390
     22 N          62.1169   85.7332    8.5059 N.ar    1  UNL1       -0.3050
     23 C          62.7372   84.9585    7.3812 C.ar    1  UNL1        0.0981
     24 C          61.6609   84.6476    6.3836 C.ar    1  UNL1        0.1193
     25 N          60.3755   85.2300    6.8919 N.ar    1  UNL1       -0.2223
     26 C          60.6572   85.9010    8.2035 C.ar    1  UNL1        0.1787
@<TRIPOS>BOND
     1    13    12    1
     2    13    14    1
     3    14    15   ar
     4    15    16   ar
     5    16    17   ar
     6    17    18   ar
     7    18    19   ar
     8    19    20    1
     9    13     1    1
    10     1     2    1
    11     1    21    1
    12    21    22    1
    13    22    23   ar
    14    23    24   ar
    15    24    25   ar
    16    25    26   ar
    17     1     4    1
    18     4     5   ar
    19     5     6   ar
    20     6     7   ar
    21     7     8    1
    22     7     9   ar
    23     9    10   ar
    24    10    11    1
    25    19    14   ar
    26    26    22   ar
    27    10     4   ar
    28     2     3    1
@<TRIPOS>MOLECULE
*****
 26 28 0 0 0
SMALL
GASTEIGER

@<TRIPOS>ATOM
      1 C          62.7208   87.7666   11.7153 C.3     1  UNL1        0.1350
      2 O          63.5792   87.0447   12.7113 O.3     1  UNL1       -0.3803
      3 H          63.3760   86.0966   12.6862 H       1  UNL1        0.2108
      4 C          63.3575   89.0665   12.1086 C.ar    1  UNL1        0.0315
      5 C          63.4400   90.1909   11.1192 C.ar    1  UNL1        0.0026
      6 C          64.0768   91.4908   11.5125 C.ar    1  UNL1        0.0295
      7 C          64.6311   91.6664   12.8952 C.ar    1  UNL1        0.1424
      8 F          65.2678   92.9663   13.2886 F       1  UNL1       -0.2041
      9 C          64.5486   90.5420   13.8847 C.ar    1  UNL1        0.0590
     10 C          63.9118   89.2420   13.4914 C.ar    1  UNL1        0.1406
     11 F          63.8293   88.1176   14.4808 F       1  UNL1       -0.2044
     12 C          61.1355   86.1202   10.4260 C.3     1  UNL1        0.0092
     13 C          62.0840   86.4666   11.3220 C.3     1  UNL1        0.0731
     14 C          62.5019   85.1928   11.9950 C.ar    1  UNL1        0.0919
     15 N          62.2205   84.9882   13.4540 N.ar    1  UNL1       -0.2260
     16 C          62.6384   83.7145   14.1270 C.ar    1  UNL1        0.1987
     17 N          63.3378   82.6454   13.3409 N.ar    1  UNL1       -0.2201
     18 C          63.6192   82.8500   11.8818 C.ar    1  UNL1        0.1314
     19 C          63.2013   84.1238   11.2089 C.ar    1  UNL1        0.1727
     20 F          63.4827   84.3285    9.7498 F       1  UNL1       -0.2013
     21 C          61.8623   88.4884   10.7193 C.3     1  UNL1        0.1390
     22 N          60.6582   89.2537   11.1822 N.ar    1  UNL1       -0.3050
     23 C          59.7039   88.8291   12.2588 C.ar    1  UNL1        0.0981
     24 C          58.6528   89.8911   12.3917 C.ar    1  UNL1        0.1193
     25 N          58.9576   90.9720   11.3974 N.ar    1  UNL1       -0.2223
     26 C          60.1970   90.5782   10.6499 C.ar    1  UNL1        0.1787
@<TRIPOS>BOND
     1    13    12    1
     2    13    14    1
     3    14    15   ar
     4    15    16   ar
     5    16    17   ar
     6    17    18   ar
     7    18    19   ar
     8    19    20    1
     9    13     1    1
    10     1     2    1
    11     1    21    1
    12    21    22    1
    13    22    23   ar
    14    23    24   ar
    15    24    25   ar
    16    25    26   ar
    17     1     4    1
    18     4     5   ar
    19     5     6   ar
    20     6     7   ar
    21     7     8    1
    22     7     9   ar
    23     9    10   ar
    24    10    11    1
    25    19    14   ar
    26    26    22   ar
    27    10     4   ar
    28     2     3    1
@<TRIPOS>MOLECULE
*****
 26 28 0 0 0
SMALL
GASTEIGER

@<TRIPOS>ATOM
      1 C          62.0029   87.6854   11.3306 C.3     1  UNL1        0.1350
      2 O          63.4188   87.9661   11.7386 O.3     1  UNL1       -0.3803
      3 H          63.4883   88.8796   12.0574 H       1  UNL1        0.2108
      4 C          62.3894   86.2864   10.9520 C.ar    1  UNL1        0.0315
      5 C          62.7421   85.9646    9.5300 C.ar    1  UNL1        0.0026
      6 C          63.1286   84.5656    9.1513 C.ar    1  UNL1        0.0295
      7 C          63.1625   83.4884   10.1946 C.ar    1  UNL1        0.1424
      8 F          63.5490   82.0894    9.8159 F       1  UNL1       -0.2041
      9 C          62.8098   83.8102   11.6167 C.ar    1  UNL1        0.0590
     10 C          62.4233   85.2092   11.9953 C.ar    1  UNL1        0.1406
     11 F          62.0706   85.5310   13.4173 F       1  UNL1       -0.2044
     12 C          60.4515   89.6762   12.0488 C.3     1  UNL1        0.0092
     13 C          61.6163   89.0844   11.7093 C.3     1  UNL1        0.0731
     14 C          62.6582   90.1623   11.7612 C.ar    1  UNL1        0.0919
     15 N          63.1074   90.8327   10.4968 N.ar    1  UNL1       -0.2260
     16 C          64.1492   91.9106   10.5487 C.ar    1  UNL1        0.1987
     17 N          64.7418   92.3181   11.8651 N.ar    1  UNL1       -0.2201
     18 C          64.2926   91.6477   13.1295 C.ar    1  UNL1        0.1314
     19 C          63.2508   90.5698   13.0775 C.ar    1  UNL1        0.1727
     20 F          62.8016   89.8993   14.3420 F       1  UNL1       -0.2013
     21 C          60.5870   87.4046   10.9227 C.3     1  UNL1        0.1390
     22 N          60.1337   87.7125    9.5264 N.ar    1  UNL1       -0.3050
     23 C          59.4103   86.7736    8.6070 C.ar    1  UNL1        0.0981
     24 C          59.1537   87.4943    7.3167 C.ar    1  UNL1        0.1193
     25 N          59.7185   88.8785    7.4386 N.ar    1  UNL1       -0.2223
     26 C          60.3241   89.0134    8.8042 C.ar    1  UNL1        0.1787
@<TRIPOS>BOND
     1    13    12    1
     2    13    14    1
     3    14    15   ar
     4    15    16   ar
     5    16    17   ar
     6    17    18   ar
     7    18    19   ar
     8    19    20    1
     9    13     1    1
    10     1     2    1
    11     1    21    1
    12    21    22    1
    13    22    23   ar
    14    23    24   ar
    15    24    25   ar
    16    25    26   ar
    17     1     4    1
    18     4     5   ar
    19     5     6   ar
    20     6     7   ar
    21     7     8    1
    22     7     9   ar
    23     9    10   ar
    24    10    11    1
    25    19    14   ar
    26    26    22   ar
    27    10     4   ar
    28     2     3    1
