@<TRIPOS>MOLECULE
*****
 32 35 0 0 0
SMALL
GASTEIGER

@<TRIPOS>ATOM
      1 C          63.9233   91.5514   11.1540 C.ar    1  UNL1        0.1638
      2 C          62.8282   90.8686   10.3894 C.ar    1  UNL1        0.0727
      3 C          62.1467   89.6647   10.9691 C.ar    1  UNL1        0.1333
      4 N          62.5602   89.1436   12.3135 N.ar    1  UNL1       -0.2103
      5 C          63.6552   89.8264   13.0781 C.ar    1  UNL1        0.1890
      6 C          64.3368   91.0303   12.4984 C.ar    1  UNL1        0.1740
      7 N          65.3757   91.4911   13.4773 N.ar    1  UNL1       -0.1237
      8 N          65.3363   90.5720   14.6620 N.ar    1  UNL1       -0.0581
      9 N          64.2729   89.5431   14.4154 N.ar    1  UNL1       -0.1927
     10 C          63.8939   88.4270   15.3430 C.ar    1  UNL1        0.0891
     11 C          63.1579   88.7265   16.6153 C.ar    1  UNL1        0.0195
     12 C          62.7789   87.6103   17.5431 C.ar    1  UNL1        0.0047
     13 C          63.1358   86.1948   17.1985 C.ar    1  UNL1        0.0373
     14 C          63.8718   85.8954   15.9262 C.ar    1  UNL1        0.1483
     15 C          64.2509   87.0114   14.9985 C.ar    1  UNL1        0.0564
     16 O          64.2288   84.4797   15.5817 O.3     1  UNL1       -0.4044
     17 C          63.3918   83.7124   14.6016 C.3     1  UNL1        0.5753
     18 F          62.5548   82.9450   13.6215 F       1  UNL1       -0.1328
     19 F          62.3206   83.5547   15.6398 F       1  UNL1       -0.1328
     20 F          64.4630   83.8700   13.5635 F       1  UNL1       -0.1328
     21 C          66.0999   92.7872   10.4574 C.3     1  UNL1        0.2525
     22 O          64.6048   92.7553   10.5742 O.3     1  UNL1       -0.4696
     23 N          61.0516   88.9819   10.2044 N.pl3   1  UNL1       -0.3180
     24 H          60.5706   89.4663    9.4950 H       1  UNL1        0.1482
     25 C          60.6895   87.5611   10.5207 C.3     1  UNL1        0.0882
     26 C          61.6175   86.4472   10.1360 C.3     1  UNL1        0.0223
     27 C          62.1037   86.3307    8.7217 C.3     1  UNL1        0.0188
     28 C          63.0317   85.2167    8.3371 C.3     1  UNL1        0.0686
     29 N          63.4735   84.2193    9.3666 N.3     1  UNL1       -0.2975
     30 C          62.9873   84.3358   10.7808 C.3     1  UNL1        0.0686
     31 C          62.0593   85.4497   11.1655 C.3     1  UNL1        0.0188
     32 H          64.4920   84.2630    9.4008 H       1  UNL1        0.1232
@<TRIPOS>BOND
     1    21    22    1
     2    22     1    1
     3     1     2   ar
     4     2     3   ar
     5     3    23    1
     6    23    25    1
     7    25    26    1
     8    26    27    1
     9    27    28    1
    10    28    29    1
    11    29    30    1
    12    30    31    1
    13     3     4   ar
    14     4     5   ar
    15     5     6   ar
    16     6     7   ar
    17     7     8   ar
    18     8     9   ar
    19     9    10    1
    20    10    11   ar
    21    11    12   ar
    22    12    13   ar
    23    13    14   ar
    24    14    16    1
    25    16    17    1
    26    17    18    1
    27    17    19    1
    28    17    20    1
    29    14    15   ar
    30     6     1   ar
    31    15    10   ar
    32    31    26    1
    33     9     5   ar
    34    23    24    1
    35    29    32    1
@<TRIPOS>MOLECULE
*****
 32 35 0 0 0
SMALL
GASTEIGER

@<TRIPOS>ATOM
      1 C          61.0692   89.8931   11.1613 C.ar    1  UNL1        0.1638
      2 C          62.1528   90.3618   12.0868 C.ar    1  UNL1        0.0727
      3 C          63.2044   89.4014   12.5575 C.ar    1  UNL1        0.1333
      4 N          63.1727   87.9724   12.1028 N.ar    1  UNL1       -0.2103
      5 C          62.0893   87.5037   11.1773 C.ar    1  UNL1        0.1890
      6 C          61.0375   88.4640   10.7066 C.ar    1  UNL1        0.1740
      7 N          60.1002   87.7188    9.8033 N.ar    1  UNL1       -0.1237
      8 N          60.5726   86.2978    9.7158 N.ar    1  UNL1       -0.0581
      9 N          61.8019   86.1649   10.5650 N.ar    1  UNL1       -0.1927
     10 C          62.6032   84.9129   10.7664 C.ar    1  UNL1        0.0891
     11 C          63.4623   84.3856    9.6557 C.ar    1  UNL1        0.0195
     12 C          64.2637   83.1335    9.8571 C.ar    1  UNL1        0.0047
     13 C          64.2057   82.4090   11.1691 C.ar    1  UNL1        0.0373
     14 C          63.3465   82.9364   12.2798 C.ar    1  UNL1        0.1483
     15 C          62.5452   84.1883   12.0785 C.ar    1  UNL1        0.0564
     16 O          63.2886   82.2117   13.5919 O.3     1  UNL1       -0.4044
     17 C          62.0059   81.5784   14.0431 C.3     1  UNL1        0.5753
     18 F          60.7232   80.9451   14.4943 F       1  UNL1       -0.1328
     19 F          62.2140   80.4603   13.0652 F       1  UNL1       -0.1328
     20 F          61.7978   82.6966   15.0210 F       1  UNL1       -0.1328
     21 C          58.8066   91.1135   11.5367 C.3     1  UNL1        0.2525
     22 O          60.0175   90.8535   10.6906 O.3     1  UNL1       -0.4696
     23 N          64.2880   89.8701   13.4830 N.pl3   1  UNL1       -0.3180
     24 H          65.1196   90.2480   13.1158 H       1  UNL1        0.1482
     25 C          64.1042   89.7630   14.9678 C.3     1  UNL1        0.0882
     26 C          63.8408   88.4268   15.5965 C.3     1  UNL1        0.0223
     27 C          63.0268   88.3366   16.8532 C.3     1  UNL1        0.0188
     28 C          62.7635   87.0003   17.4818 C.3     1  UNL1        0.0686
     29 N          63.3140   85.7544   16.8538 N.3     1  UNL1       -0.2975
     30 C          64.1280   85.8446   15.5971 C.3     1  UNL1        0.0686
     31 C          64.3914   87.1808   14.9684 C.3     1  UNL1        0.0188
     32 H          62.5172   85.1526   16.6459 H       1  UNL1        0.1232
@<TRIPOS>BOND
     1    21    22    1
     2    22     1    1
     3     1     2   ar
     4     2     3   ar
     5     3    23    1
     6    23    25    1
     7    25    26    1
     8    26    27    1
     9    27    28    1
    10    28    29    1
    11    29    30    1
    12    30    31    1
    13     3     4   ar
    14     4     5   ar
    15     5     6   ar
    16     6     7   ar
    17     7     8   ar
    18     8     9   ar
    19     9    10    1
    20    10    11   ar
    21    11    12   ar
    22    12    13   ar
    23    13    14   ar
    24    14    16    1
    25    16    17    1
    26    17    18    1
    27    17    19    1
    28    17    20    1
    29    14    15   ar
    30     6     1   ar
    31    15    10   ar
    32    31    26    1
    33     9     5   ar
    34    23    24    1
    35    29    32    1
@<TRIPOS>MOLECULE
*****
 32 35 0 0 0
SMALL
GASTEIGER

@<TRIPOS>ATOM
      1 C          61.1912   88.9072    9.6216 C.ar    1  UNL1        0.1638
      2 C          61.5973   90.0667   10.4823 C.ar    1  UNL1        0.0727
      3 C          62.2816   89.8232   11.7946 C.ar    1  UNL1        0.1333
      4 N          62.5599   88.4202   12.2464 N.ar    1  UNL1       -0.2103
      5 C          62.1538   87.2607   11.3858 C.ar    1  UNL1        0.1890
      6 C          61.4694   87.5042   10.0734 C.ar    1  UNL1        0.1740
      7 N          61.1877   86.1725    9.4433 N.ar    1  UNL1       -0.1237
      8 N          61.6980   85.1058   10.3663 N.ar    1  UNL1       -0.0581
      9 N          62.2950   85.7784   11.5668 N.ar    1  UNL1       -0.1927
     10 C          62.9230   85.0895   12.7420 C.ar    1  UNL1        0.0891
     11 C          63.9749   85.7915   13.5486 C.ar    1  UNL1        0.0195
     12 C          64.6030   85.1027   14.7239 C.ar    1  UNL1        0.0047
     13 C          64.1791   83.7119   15.0924 C.ar    1  UNL1        0.0373
     14 C          63.1272   83.0099   14.2857 C.ar    1  UNL1        0.1483
     15 C          62.4992   83.6986   13.1106 C.ar    1  UNL1        0.0564
     16 O          62.7034   81.6190   14.6543 O.3     1  UNL1       -0.4044
     17 C          62.5313   80.5795   13.5867 C.3     1  UNL1        0.5753
     18 F          62.3592   79.5400   12.5191 F       1  UNL1       -0.1328
     19 F          61.0877   80.4293   13.9656 F       1  UNL1       -0.1328
     20 F          63.9748   80.7297   13.2078 F       1  UNL1       -0.1328
     21 C          59.3703   88.2706    7.8813 C.3     1  UNL1        0.2525
     22 O          60.5069   89.1509    8.3092 O.3     1  UNL1       -0.4696
     23 N          62.6878   90.9827   12.6554 N.pl3   1  UNL1       -0.3180
     24 H          62.2815   91.8680   12.5124 H       1  UNL1        0.1482
     25 C          63.7130   90.7932   13.7338 C.3     1  UNL1        0.0882
     26 C          65.0685   91.4210   13.5986 C.3     1  UNL1        0.0223
     27 C          66.1008   91.2143   14.6673 C.3     1  UNL1        0.0188
     28 C          67.4563   91.8421   14.5320 C.3     1  UNL1        0.0686
     29 N          67.7797   92.6766   13.3283 N.3     1  UNL1       -0.2975
     30 C          66.7475   92.8833   12.2597 C.3     1  UNL1        0.0686
     31 C          65.3919   92.2555   12.3949 C.3     1  UNL1        0.0188
     32 H          68.5866   92.2443   12.8785 H       1  UNL1        0.1232
@<TRIPOS>BOND
     1    21    22    1
     2    22     1    1
     3     1     2   ar
     4     2     3   ar
     5     3    23    1
     6    23    25    1
     7    25    26    1
     8    26    27    1
     9    27    28    1
    10    28    29    1
    11    29    30    1
    12    30    31    1
    13     3     4   ar
    14     4     5   ar
    15     5     6   ar
    16     6     7   ar
    17     7     8   ar
    18     8     9   ar
    19     9    10    1
    20    10    11   ar
    21    11    12   ar
    22    12    13   ar
    23    13    14   ar
    24    14    16    1
    25    16    17    1
    26    17    18    1
    27    17    19    1
    28    17    20    1
    29    14    15   ar
    30     6     1   ar
    31    15    10   ar
    32    31    26    1
    33     9     5   ar
    34    23    24    1
    35    29    32    1
@<TRIPOS>MOLECULE
*****
 32 35 0 0 0
SMALL
GASTEIGER

@<TRIPOS>ATOM
      1 C          64.8142   91.0516   13.6237 C.ar    1  UNL1        0.1638
      2 C          64.7321   89.8851   14.5632 C.ar    1  UNL1        0.0727
      3 C          63.9074   88.6861   14.1999 C.ar    1  UNL1        0.1333
      4 N          63.1648   88.6534   12.8971 N.ar    1  UNL1       -0.2103
      5 C          63.2469   89.8198   11.9575 C.ar    1  UNL1        0.1890
      6 C          64.0716   91.0189   12.3209 C.ar    1  UNL1        0.1740
      7 N          63.9637   92.0120   11.2019 N.ar    1  UNL1       -0.1237
      8 N          63.0724   91.4267   10.1470 N.ar    1  UNL1       -0.0581
      9 N          62.6293   90.0718   10.6140 N.ar    1  UNL1       -0.1927
     10 C          61.7271   89.1337    9.8683 C.ar    1  UNL1        0.0891
     11 C          60.4020   89.6157    9.3567 C.ar    1  UNL1        0.0195
     12 C          59.4997   88.6775    8.6110 C.ar    1  UNL1        0.0047
     13 C          59.9226   87.2576    8.3770 C.ar    1  UNL1        0.0373
     14 C          61.2478   86.7757    8.8887 C.ar    1  UNL1        0.1483
     15 C          62.1500   87.7137    9.6343 C.ar    1  UNL1        0.0564
     16 O          61.6707   85.3557    8.6547 O.3     1  UNL1       -0.4044
     17 C          62.3255   84.9715    7.3610 C.3     1  UNL1        0.5753
     18 F          62.9803   84.5874    6.0673 F       1  UNL1       -0.1328
     19 F          60.9811   84.6608    6.7728 F       1  UNL1       -0.1328
     20 F          63.6699   85.2823    7.9491 F       1  UNL1       -0.1328
     21 C          66.9779   92.4626   13.3451 C.3     1  UNL1        0.2525
     22 O          65.6389   92.2507   13.9871 O.3     1  UNL1       -0.4696
     23 N          63.8253   87.5196   15.1394 N.pl3   1  UNL1       -0.3180
     24 H          63.2799   87.5831   15.9566 H       1  UNL1        0.1482
     25 C          64.5741   86.2564   14.8338 C.3     1  UNL1        0.0882
     26 C          63.8474   85.0713   14.2704 C.3     1  UNL1        0.0223
     27 C          63.4636   83.9312   15.1666 C.3     1  UNL1        0.0188
     28 C          62.7368   82.7462   14.6031 C.3     1  UNL1        0.0686
     29 N          62.3938   82.7011   13.1437 N.3     1  UNL1       -0.2975
     30 C          62.7775   83.8411   12.2475 C.3     1  UNL1        0.0686
     31 C          63.5043   85.0262   12.8109 C.3     1  UNL1        0.0188
     32 H          61.3801   82.6067   13.0822 H       1  UNL1        0.1232
@<TRIPOS>BOND
     1    21    22    1
     2    22     1    1
     3     1     2   ar
     4     2     3   ar
     5     3    23    1
     6    23    25    1
     7    25    26    1
     8    26    27    1
     9    27    28    1
    10    28    29    1
    11    29    30    1
    12    30    31    1
    13     3     4   ar
    14     4     5   ar
    15     5     6   ar
    16     6     7   ar
    17     7     8   ar
    18     8     9   ar
    19     9    10    1
    20    10    11   ar
    21    11    12   ar
    22    12    13   ar
    23    13    14   ar
    24    14    16    1
    25    16    17    1
    26    17    18    1
    27    17    19    1
    28    17    20    1
    29    14    15   ar
    30     6     1   ar
    31    15    10   ar
    32    31    26    1
    33     9     5   ar
    34    23    24    1
    35    29    32    1
@<TRIPOS>MOLECULE
*****
 32 35 0 0 0
SMALL
GASTEIGER

@<TRIPOS>ATOM
      1 C          61.0164   87.1106   10.4818 C.ar    1  UNL1        0.1638
      2 C          61.6278   86.0726   11.3757 C.ar    1  UNL1        0.0727
      3 C          62.7644   86.4395   12.2830 C.ar    1  UNL1        0.1333
      4 N          63.2898   87.8443   12.2967 N.ar    1  UNL1       -0.2103
      5 C          62.6785   88.8824   11.4029 C.ar    1  UNL1        0.1890
      6 C          61.5418   88.5155   10.4955 C.ar    1  UNL1        0.1740
      7 N          61.1434   89.7435    9.7318 N.ar    1  UNL1       -0.1237
      8 N          62.0339   90.8694   10.1672 N.ar    1  UNL1       -0.0581
      9 N          62.9826   90.3372   11.2000 N.ar    1  UNL1       -0.1927
     10 C          64.0483   91.1219   11.9060 C.ar    1  UNL1        0.0891
     11 C          64.2264   90.9799   13.3886 C.ar    1  UNL1        0.0195
     12 C          65.2922   91.7647   14.0946 C.ar    1  UNL1        0.0047
     13 C          66.1797   92.6915   13.3180 C.ar    1  UNL1        0.0373
     14 C          66.0015   92.8335   11.8353 C.ar    1  UNL1        0.1483
     15 C          64.9359   92.0488   11.1293 C.ar    1  UNL1        0.0564
     16 O          66.8892   93.7604   11.0588 O.3     1  UNL1       -0.4044
     17 C          67.5890   93.2710    9.8256 C.3     1  UNL1        0.5753
     18 F          68.2888   92.7816    8.5924 F       1  UNL1       -0.1328
     19 F          68.1929   92.1471   10.6143 F       1  UNL1       -0.1328
     20 F          66.9851   94.3949    9.0369 F       1  UNL1       -0.1328
     21 C          60.1500   86.3707    8.1469 C.3     1  UNL1        0.2525
     22 O          59.8797   86.7437    9.5744 O.3     1  UNL1       -0.4696
     23 N          63.3757   85.4014   13.1768 N.pl3   1  UNL1       -0.3180
     24 H          64.3459   85.4052   13.3438 H       1  UNL1        0.1482
     25 C          62.5087   84.3576   13.8161 C.3     1  UNL1        0.0882
     26 C          62.5516   82.9418   13.3224 C.3     1  UNL1        0.0223
     27 C          62.1375   81.8192   14.2270 C.3     1  UNL1        0.0188
     28 C          62.1804   80.4034   13.7331 C.3     1  UNL1        0.0686
     29 N          62.6373   80.1104   12.3349 N.3     1  UNL1       -0.2975
     30 C          63.0514   81.2330   11.4303 C.3     1  UNL1        0.0686
     31 C          63.0085   82.6487   11.9241 C.3     1  UNL1        0.0188
     32 H          61.8698   79.6253   11.8699 H       1  UNL1        0.1232
@<TRIPOS>BOND
     1    21    22    1
     2    22     1    1
     3     1     2   ar
     4     2     3   ar
     5     3    23    1
     6    23    25    1
     7    25    26    1
     8    26    27    1
     9    27    28    1
    10    28    29    1
    11    29    30    1
    12    30    31    1
    13     3     4   ar
    14     4     5   ar
    15     5     6   ar
    16     6     7   ar
    17     7     8   ar
    18     8     9   ar
    19     9    10    1
    20    10    11   ar
    21    11    12   ar
    22    12    13   ar
    23    13    14   ar
    24    14    16    1
    25    16    17    1
    26    17    18    1
    27    17    19    1
    28    17    20    1
    29    14    15   ar
    30     6     1   ar
    31    15    10   ar
    32    31    26    1
    33     9     5   ar
    34    23    24    1
    35    29    32    1
@<TRIPOS>MOLECULE
*****
 32 35 0 0 0
SMALL
GASTEIGER

@<TRIPOS>ATOM
      1 C          64.8243   91.7494   14.4797 C.ar    1  UNL1        0.1638
      2 C          64.2031   90.9927   15.6163 C.ar    1  UNL1        0.0727
      3 C          63.1601   89.9502   15.3421 C.ar    1  UNL1        0.1333
      4 N          62.7382   89.6643   13.9313 N.ar    1  UNL1       -0.2103
      5 C          63.3593   90.4209   12.7948 C.ar    1  UNL1        0.1890
      6 C          64.4024   91.4635   13.0690 C.ar    1  UNL1        0.1740
      7 N          64.8341   92.0441   11.7551 N.ar    1  UNL1       -0.1237
      8 N          64.0579   91.3604   10.6688 N.ar    1  UNL1       -0.0581
      9 N          63.1464   90.3572   11.3113 N.ar    1  UNL1       -0.1927
     10 C          62.1900   89.4497   10.5960 C.ar    1  UNL1        0.0891
     11 C          61.1480   90.0268    9.6844 C.ar    1  UNL1        0.0195
     12 C          60.1915   89.1193    8.9690 C.ar    1  UNL1        0.0047
     13 C          60.2771   87.6348    9.1653 C.ar    1  UNL1        0.0373
     14 C          61.3192   87.0577   10.0771 C.ar    1  UNL1        0.1483
     15 C          62.2756   87.9651   10.7924 C.ar    1  UNL1        0.0564
     16 O          61.4047   85.5730   10.2734 O.3     1  UNL1       -0.4044
     17 C          62.7055   84.8605   10.0498 C.3     1  UNL1        0.5753
     18 F          64.0064   84.1480    9.8262 F       1  UNL1       -0.1328
     19 F          62.6635   84.3422   11.4567 F       1  UNL1       -0.1328
     20 F          62.7476   85.3788    8.6428 F       1  UNL1       -0.1328
     21 C          66.7279   92.6880   15.9782 C.3     1  UNL1        0.2525
     22 O          65.8673   92.7919   14.7540 O.3     1  UNL1       -0.4696
     23 N          62.5389   89.1936   16.4786 N.pl3   1  UNL1       -0.3180
     24 H          61.6673   89.4752   16.8395 H       1  UNL1        0.1482
     25 C          63.2458   88.0077   17.0652 C.3     1  UNL1        0.0882
     26 C          63.3361   86.7282   16.2876 C.3     1  UNL1        0.0223
     27 C          62.4611   85.5656   16.6522 C.3     1  UNL1        0.0188
     28 C          62.5516   84.2861   15.8745 C.3     1  UNL1        0.0686
     29 N          63.5168   84.1692   14.7324 N.3     1  UNL1       -0.2975
     30 C          64.3918   85.3318   14.3678 C.3     1  UNL1        0.0686
     31 C          64.3014   86.6113   15.1454 C.3     1  UNL1        0.0188
     32 H          62.9665   83.9436   13.9037 H       1  UNL1        0.1232
@<TRIPOS>BOND
     1    21    22    1
     2    22     1    1
     3     1     2   ar
     4     2     3   ar
     5     3    23    1
     6    23    25    1
     7    25    26    1
     8    26    27    1
     9    27    28    1
    10    28    29    1
    11    29    30    1
    12    30    31    1
    13     3     4   ar
    14     4     5   ar
    15     5     6   ar
    16     6     7   ar
    17     7     8   ar
    18     8     9   ar
    19     9    10    1
    20    10    11   ar
    21    11    12   ar
    22    12    13   ar
    23    13    14   ar
    24    14    16    1
    25    16    17    1
    26    17    18    1
    27    17    19    1
    28    17    20    1
    29    14    15   ar
    30     6     1   ar
    31    15    10   ar
    32    31    26    1
    33     9     5   ar
    34    23    24    1
    35    29    32    1
@<TRIPOS>MOLECULE
*****
 32 35 0 0 0
SMALL
GASTEIGER

@<TRIPOS>ATOM
      1 C          60.1930   87.3835    9.0182 C.ar    1  UNL1        0.1638
      2 C          60.8783   86.0517    9.1012 C.ar    1  UNL1        0.0727
      3 C          62.0385   85.8620   10.0327 C.ar    1  UNL1        0.1333
      4 N          62.5136   87.0041   10.8811 N.ar    1  UNL1       -0.2103
      5 C          61.8284   88.3358   10.7981 C.ar    1  UNL1        0.1890
      6 C          60.6681   88.5255    9.8666 C.ar    1  UNL1        0.1740
      7 N          60.1942   89.9425    9.9991 N.ar    1  UNL1       -0.1237
      8 N          61.0616   90.6285   11.0124 N.ar    1  UNL1       -0.0581
      9 N          62.0716   89.6356   11.5063 N.ar    1  UNL1       -0.1927
     10 C          63.1377   89.8966   12.5288 C.ar    1  UNL1        0.0891
     11 C          63.4639   88.8526   13.5553 C.ar    1  UNL1        0.0195
     12 C          64.5300   89.1136   14.5778 C.ar    1  UNL1        0.0047
     13 C          65.2697   90.4184   14.5738 C.ar    1  UNL1        0.0373
     14 C          64.9434   91.4624   13.5472 C.ar    1  UNL1        0.1483
     15 C          63.8774   91.2015   12.5247 C.ar    1  UNL1        0.0564
     16 O          65.6832   92.7673   13.5433 O.3     1  UNL1       -0.4044
     17 C          67.1038   92.8256   14.0211 C.3     1  UNL1        0.5753
     18 F          68.5245   92.8839   14.4989 F       1  UNL1       -0.1328
     19 F          67.5509   92.1135   12.7789 F       1  UNL1       -0.1328
     20 F          66.6568   93.5377   15.2633 F       1  UNL1       -0.1328
     21 C          59.0705   88.6593    7.0529 C.3     1  UNL1        0.2525
     22 O          59.0327   87.5731    8.0866 O.3     1  UNL1       -0.4696
     23 N          62.7238   84.5302   10.1157 N.pl3   1  UNL1       -0.3180
     24 H          62.6025   83.8685    9.3969 H       1  UNL1        0.1482
     25 C          63.5937   84.2067   11.2941 C.3     1  UNL1        0.0882
     26 C          63.0567   83.3663   12.4145 C.3     1  UNL1        0.0223
     27 C          62.7328   81.9206   12.1791 C.3     1  UNL1        0.0188
     28 C          62.1958   81.0804   13.2996 C.3     1  UNL1        0.0686
     29 N          61.9826   81.6856   14.6554 N.3     1  UNL1       -0.2975
     30 C          62.3064   83.1312   14.8908 C.3     1  UNL1        0.0686
     31 C          62.8435   83.9715   13.7703 C.3     1  UNL1        0.0188
     32 H          62.5486   81.1466   15.3108 H       1  UNL1        0.1232
@<TRIPOS>BOND
     1    21    22    1
     2    22     1    1
     3     1     2   ar
     4     2     3   ar
     5     3    23    1
     6    23    25    1
     7    25    26    1
     8    26    27    1
     9    27    28    1
    10    28    29    1
    11    29    30    1
    12    30    31    1
    13     3     4   ar
    14     4     5   ar
    15     5     6   ar
    16     6     7   ar
    17     7     8   ar
    18     8     9   ar
    19     9    10    1
    20    10    11   ar
    21    11    12   ar
    22    12    13   ar
    23    13    14   ar
    24    14    16    1
    25    16    17    1
    26    17    18    1
    27    17    19    1
    28    17    20    1
    29    14    15   ar
    30     6     1   ar
    31    15    10   ar
    32    31    26    1
    33     9     5   ar
    34    23    24    1
    35    29    32    1
@<TRIPOS>MOLECULE
*****
 32 35 0 0 0
SMALL
GASTEIGER

@<TRIPOS>ATOM
      1 C          63.6106   83.2592   12.3909 C.ar    1  UNL1        0.1638
      2 C          62.8217   83.7940   11.2325 C.ar    1  UNL1        0.0727
      3 C          62.4061   85.2350   11.2096 C.ar    1  UNL1        0.1333
      4 N          62.7793   86.1414   12.3450 N.ar    1  UNL1       -0.2103
      5 C          63.5682   85.6067   13.5033 C.ar    1  UNL1        0.1890
      6 C          63.9839   84.1656   13.5263 C.ar    1  UNL1        0.1740
      7 N          64.7504   83.9244   14.7929 N.ar    1  UNL1       -0.1237
      8 N          64.8085   85.2164   15.5527 N.ar    1  UNL1       -0.0581
      9 N          64.0779   86.2561   14.7557 N.ar    1  UNL1       -0.1927
     10 C          63.8899   87.6930   15.1431 C.ar    1  UNL1        0.0891
     11 C          63.3412   88.0395   16.4954 C.ar    1  UNL1        0.0195
     12 C          63.1532   89.4764   16.8829 C.ar    1  UNL1        0.0047
     13 C          63.5140   90.5667   15.9181 C.ar    1  UNL1        0.0373
     14 C          64.0628   90.2201   14.5657 C.ar    1  UNL1        0.1483
     15 C          64.2507   88.7834   14.1782 C.ar    1  UNL1        0.0564
     16 O          64.4235   91.3105   13.6009 O.3     1  UNL1       -0.4044
     17 C          65.8647   91.6133   13.3158 C.3     1  UNL1        0.5753
     18 F          67.3059   91.9161   13.0306 F       1  UNL1       -0.1328
     19 F          66.2191   91.2572   14.7291 F       1  UNL1       -0.1328
     20 F          65.5103   91.9694   11.9024 F       1  UNL1       -0.1328
     21 C          63.1614   80.7988   13.0943 C.3     1  UNL1        0.2525
     22 O          64.0263   81.8181   12.4138 O.3     1  UNL1       -0.4696
     23 N          61.6172   85.7697   10.0512 N.pl3   1  UNL1       -0.3180
     24 H          60.8711   85.2456    9.6799 H       1  UNL1        0.1482
     25 C          61.9652   87.1030    9.4586 C.3     1  UNL1        0.0882
     26 C          61.5957   88.3644   10.1813 C.3     1  UNL1        0.0223
     27 C          60.2647   88.4751   10.8644 C.3     1  UNL1        0.0188
     28 C          59.8954   89.7366   11.5871 C.3     1  UNL1        0.0686
     29 N          60.8567   90.8872   11.6267 N.3     1  UNL1       -0.2975
     30 C          62.1876   90.7765   10.9437 C.3     1  UNL1        0.0686
     31 C          62.5571   89.5151   10.2210 C.3     1  UNL1        0.0188
     32 H          61.0457   91.0792   12.6105 H       1  UNL1        0.1232
@<TRIPOS>BOND
     1    21    22    1
     2    22     1    1
     3     1     2   ar
     4     2     3   ar
     5     3    23    1
     6    23    25    1
     7    25    26    1
     8    26    27    1
     9    27    28    1
    10    28    29    1
    11    29    30    1
    12    30    31    1
    13     3     4   ar
    14     4     5   ar
    15     5     6   ar
    16     6     7   ar
    17     7     8   ar
    18     8     9   ar
    19     9    10    1
    20    10    11   ar
    21    11    12   ar
    22    12    13   ar
    23    13    14   ar
    24    14    16    1
    25    16    17    1
    26    17    18    1
    27    17    19    1
    28    17    20    1
    29    14    15   ar
    30     6     1   ar
    31    15    10   ar
    32    31    26    1
    33     9     5   ar
    34    23    24    1
    35    29    32    1
@<TRIPOS>MOLECULE
*****
 32 35 0 0 0
SMALL
GASTEIGER

@<TRIPOS>ATOM
      1 C          60.3357   87.2447    9.5892 C.ar    1  UNL1        0.1638
      2 C          61.0667   85.9640    9.8644 C.ar    1  UNL1        0.0727
      3 C          62.2059   85.9454   10.8399 C.ar    1  UNL1        0.1333
      4 N          62.6144   87.2074   11.5402 N.ar    1  UNL1       -0.2103
      5 C          61.8835   88.4881   11.2650 C.ar    1  UNL1        0.1890
      6 C          60.7442   88.5067   10.2895 C.ar    1  UNL1        0.1740
      7 N          60.2150   89.9086   10.2215 N.ar    1  UNL1       -0.1237
      8 N          61.0273   90.7564   11.1549 N.ar    1  UNL1       -0.0581
      9 N          62.0585   89.8785   11.7999 N.ar    1  UNL1       -0.1927
     10 C          63.0845   90.3145   12.8035 C.ar    1  UNL1        0.0891
     11 C          63.0144   89.8112   14.2148 C.ar    1  UNL1        0.0195
     12 C          64.0404   90.2472   15.2184 C.ar    1  UNL1        0.0047
     13 C          65.1365   91.1864   14.8108 C.ar    1  UNL1        0.0373
     14 C          65.2067   91.6897   13.3994 C.ar    1  UNL1        0.1483
     15 C          64.1807   91.2538   12.3958 C.ar    1  UNL1        0.0564
     16 O          66.3029   92.6289   12.9918 O.3     1  UNL1       -0.4044
     17 C          67.3470   93.0401   13.9871 C.3     1  UNL1        0.5753
     18 F          68.3912   93.4513   14.9823 F       1  UNL1       -0.1328
     19 F          68.1647   91.8352   13.6271 F       1  UNL1       -0.1328
     20 F          66.5294   94.2451   14.3470 F       1  UNL1       -0.1328
     21 C          59.2380   88.1827    7.4293 C.3     1  UNL1        0.2525
     22 O          59.1964   87.2632    8.6137 O.3     1  UNL1       -0.4696
     23 N          62.9369   84.6648   11.1151 N.pl3   1  UNL1       -0.3180
     24 H          63.6033   84.3304   10.4723 H       1  UNL1        0.1482
     25 C          62.6524   83.8936   12.3699 C.3     1  UNL1        0.0882
     26 C          63.0055   84.4778   13.7055 C.3     1  UNL1        0.0223
     27 C          64.2402   85.3167   13.8545 C.3     1  UNL1        0.0188
     28 C          64.5932   85.9009   15.1902 C.3     1  UNL1        0.0686
     29 N          63.7118   85.6462   16.3768 N.3     1  UNL1       -0.2975
     30 C          62.4773   84.8074   16.2279 C.3     1  UNL1        0.0686
     31 C          62.1241   84.2232   14.8922 C.3     1  UNL1        0.0188
     32 H          63.4088   86.5579   16.7196 H       1  UNL1        0.1232
@<TRIPOS>BOND
     1    21    22    1
     2    22     1    1
     3     1     2   ar
     4     2     3   ar
     5     3    23    1
     6    23    25    1
     7    25    26    1
     8    26    27    1
     9    27    28    1
    10    28    29    1
    11    29    30    1
    12    30    31    1
    13     3     4   ar
    14     4     5   ar
    15     5     6   ar
    16     6     7   ar
    17     7     8   ar
    18     8     9   ar
    19     9    10    1
    20    10    11   ar
    21    11    12   ar
    22    12    13   ar
    23    13    14   ar
    24    14    16    1
    25    16    17    1
    26    17    18    1
    27    17    19    1
    28    17    20    1
    29    14    15   ar
    30     6     1   ar
    31    15    10   ar
    32    31    26    1
    33     9     5   ar
    34    23    24    1
    35    29    32    1
