@<TRIPOS>MOLECULE
*****
 41 46 0 0 0
SMALL
GASTEIGER

@<TRIPOS>ATOM
      1 C          61.8104   91.3868   11.0414 C.3     1  UNL1        0.0718
      2 C          62.4757   90.4531   12.0087 C.ar    1  UNL1        0.1208
      3 N          63.1520   90.8448   13.2890 N.ar    1  UNL1       -0.2294
      4 C          63.6757   89.5976   13.9371 C.ar    1  UNL1        0.1174
      5 C          64.4281   89.3703   15.2147 C.ar    1  UNL1        0.1193
      6 N          64.8279   87.9804   15.6125 N.ar    1  UNL1       -0.2421
      7 C          64.4753   86.8178   14.7327 C.ar    1  UNL1        0.0850
      8 C          64.8751   85.4278   15.1306 C.ar    1  UNL1        0.0488
      9 C          64.5225   84.2652   14.2509 C.ar    1  UNL1        0.1416
     10 F          64.9223   82.8753   14.6487 F       1  UNL1       -0.2041
     11 C          63.7700   84.4925   12.9733 C.ar    1  UNL1        0.0284
     12 C          63.3702   85.8824   12.5755 C.ar    1  UNL1        0.0052
     13 C          63.7229   87.0450   13.4552 C.ar    1  UNL1        0.0351
     14 C          63.3231   88.4349   13.0574 C.ar    1  UNL1        0.0816
     15 N          62.5814   88.9637   11.8656 N.ar    1  UNL1       -0.3138
     16 C          62.0405   88.1465   10.7300 C.3     1  UNL1        0.1224
     17 C          62.9749   87.3561    9.8629 C.3     1  UNL1        0.0469
     18 C          62.4340   86.5389    8.7274 C.3     1  UNL1        0.0956
     19 N          60.9585   86.5120    8.4589 N.am    1  UNL1       -0.2746
     20 C          60.4175   85.6948    7.3233 C.2     1  UNL1        0.2556
     21 O          58.9420   85.6680    7.0549 O.2     1  UNL1       -0.2722
     22 C          60.0239   87.3024    9.3260 C.3     1  UNL1        0.1306
     23 C          60.5648   88.1196   10.4615 C.3     1  UNL1        0.2011
     24 F          59.6303   88.9100   11.3286 F       1  UNL1       -0.2334
     25 C          61.3521   84.9044    6.4562 C.3     1  UNL1        0.2232
     26 O          60.8159   83.8197    5.5696 O.3     1  UNL1       -0.3737
     27 H          60.4566   83.1034    6.1162 H       1  UNL1        0.2110
     28 C          63.4174   83.3299   12.0935 C.ar    1  UNL1        0.0129
     29 C          63.9495   83.2608   10.6927 C.ar    1  UNL1        0.0040
     30 C          63.5968   82.0982    9.8130 C.ar    1  UNL1        0.0377
     31 C          62.7121   81.0046   10.3341 C.ar    1  UNL1        0.1495
     32 C          62.1800   81.0737   11.7348 C.ar    1  UNL1        0.0490
     33 C          62.5327   82.2364   12.6145 C.ar    1  UNL1        0.0608
     34 CL         62.0006   82.3055   14.0153 Cl      1  UNL1       -0.0821
     35 O          62.3594   79.8420    9.4543 O.3     1  UNL1       -0.4223
     36 C          63.1297   78.5593    9.5619 C.ar    1  UNL1        0.3246
     37 N          64.2204   78.2547    8.5782 N.ar    1  UNL1       -0.1924
     38 C          64.9907   76.9720    8.6858 C.ar    1  UNL1        0.1053
     39 C          64.6703   75.9940    9.7771 C.ar    1  UNL1        0.0416
     40 C          63.5795   76.2987   10.7608 C.ar    1  UNL1        0.1053
     41 N          62.8093   77.5813   10.6532 N.ar    1  UNL1       -0.1924
@<TRIPOS>BOND
     1     1     2    1
     2     2     3   ar
     3     3     4   ar
     4     4     5   ar
     5     5     6   ar
     6     6     7   ar
     7     7     8   ar
     8     8     9   ar
     9     9    10    1
    10     9    11   ar
    11    11    28    1
    12    28    29   ar
    13    29    30   ar
    14    30    31   ar
    15    31    35    1
    16    35    36    1
    17    36    37   ar
    18    37    38   ar
    19    38    39   ar
    20    39    40   ar
    21    40    41   ar
    22    31    32   ar
    23    32    33   ar
    24    33    34    1
    25    11    12   ar
    26    12    13   ar
    27    13    14   ar
    28    14    15   ar
    29    16    15    1
    30    16    17    1
    31    17    18    1
    32    18    19    1
    33    19    20   am
    34    20    21    2
    35    20    25    1
    36    25    26    1
    37    19    22    1
    38    22    23    1
    39    23    24    1
    40    15     2   ar
    41    23    16    1
    42    14     4   ar
    43    13     7   ar
    44    33    28   ar
    45    41    36   ar
    46    26    27    1
@<TRIPOS>MOLECULE
*****
 41 46 0 0 0
SMALL
GASTEIGER

@<TRIPOS>ATOM
      1 C          61.6810   83.6760    7.9001 C.3     1  UNL1        0.0718
      2 C          62.1786   83.3027    9.2651 C.ar    1  UNL1        0.1208
      3 N          62.4358   81.9101    9.7594 N.ar    1  UNL1       -0.2294
      4 C          62.9225   82.0032   11.1752 C.ar    1  UNL1        0.1174
      5 C          63.3317   80.9548   12.1668 C.ar    1  UNL1        0.1193
      6 N          63.7843   81.3566   13.5392 N.ar    1  UNL1       -0.2421
      7 C          63.8278   82.8068   13.9200 C.ar    1  UNL1        0.0850
      8 C          64.2805   83.2087   15.2925 C.ar    1  UNL1        0.0488
      9 C          64.3240   84.6589   15.6733 C.ar    1  UNL1        0.1416
     10 F          64.7767   85.0607   17.0457 F       1  UNL1       -0.2041
     11 C          63.9148   85.7073   14.6815 C.ar    1  UNL1        0.0284
     12 C          63.4622   85.3054   13.3091 C.ar    1  UNL1        0.0052
     13 C          63.4187   83.8552   12.9283 C.ar    1  UNL1        0.0351
     14 C          62.9660   83.4534   11.5559 C.ar    1  UNL1        0.0816
     15 N          62.5062   84.2565   10.3754 N.ar    1  UNL1       -0.3138
     16 C          62.3938   85.7511   10.3158 C.3     1  UNL1        0.1224
     17 C          61.5988   86.4855   11.3542 C.3     1  UNL1        0.0469
     18 C          61.4864   87.9801   11.2946 C.3     1  UNL1        0.0956
     19 N          62.1691   88.7404   10.1964 N.am    1  UNL1       -0.2746
     20 C          62.0567   90.2350   10.1368 C.2     1  UNL1        0.2556
     21 O          62.7394   90.9951    9.0386 O.2     1  UNL1       -0.2722
     22 C          62.9642   88.0060    9.1579 C.3     1  UNL1        0.1306
     23 C          63.0766   86.5114    9.2176 C.3     1  UNL1        0.2011
     24 F          63.8717   85.7770    8.1790 F       1  UNL1       -0.2334
     25 C          61.2616   90.9693   11.1753 C.3     1  UNL1        0.2232
     26 O          59.7629   90.9653   11.1138 O.3     1  UNL1       -0.3737
     27 H          59.4705   91.4399   10.3200 H       1  UNL1        0.2110
     28 C          63.9583   87.1575   15.0623 C.ar    1  UNL1        0.0129
     29 C          64.6698   88.1428   14.1829 C.ar    1  UNL1        0.0040
     30 C          64.7132   89.5930   14.5637 C.ar    1  UNL1        0.0377
     31 C          64.0453   90.0579   15.8238 C.ar    1  UNL1        0.1495
     32 C          63.3339   89.0727   16.7030 C.ar    1  UNL1        0.0490
     33 C          63.2904   87.6225   16.3223 C.ar    1  UNL1        0.0608
     34 CL         62.5791   86.6372   17.2015 Cl      1  UNL1       -0.0821
     35 O          64.0888   91.5082   16.2045 O.3     1  UNL1       -0.4223
     36 C          65.2708   92.3488   15.8221 C.ar    1  UNL1        0.3246
     37 N          66.3927   92.5529   16.7966 N.ar    1  UNL1       -0.1924
     38 C          67.5747   93.3936   16.4142 C.ar    1  UNL1        0.1053
     39 C          67.6348   94.0302   15.0573 C.ar    1  UNL1        0.0416
     40 C          66.5128   93.8261   14.0828 C.ar    1  UNL1        0.1053
     41 N          65.3309   92.9854   14.4652 N.ar    1  UNL1       -0.1924
@<TRIPOS>BOND
     1     1     2    1
     2     2     3   ar
     3     3     4   ar
     4     4     5   ar
     5     5     6   ar
     6     6     7   ar
     7     7     8   ar
     8     8     9   ar
     9     9    10    1
    10     9    11   ar
    11    11    28    1
    12    28    29   ar
    13    29    30   ar
    14    30    31   ar
    15    31    35    1
    16    35    36    1
    17    36    37   ar
    18    37    38   ar
    19    38    39   ar
    20    39    40   ar
    21    40    41   ar
    22    31    32   ar
    23    32    33   ar
    24    33    34    1
    25    11    12   ar
    26    12    13   ar
    27    13    14   ar
    28    14    15   ar
    29    16    15    1
    30    16    17    1
    31    17    18    1
    32    18    19    1
    33    19    20   am
    34    20    21    2
    35    20    25    1
    36    25    26    1
    37    19    22    1
    38    22    23    1
    39    23    24    1
    40    15     2   ar
    41    23    16    1
    42    14     4   ar
    43    13     7   ar
    44    33    28   ar
    45    41    36   ar
    46    26    27    1
@<TRIPOS>MOLECULE
*****
 41 46 0 0 0
SMALL
GASTEIGER

@<TRIPOS>ATOM
      1 C          64.0327   85.6267   17.2751 C.3     1  UNL1        0.0718
      2 C          63.7972   86.7558   16.3161 C.ar    1  UNL1        0.1208
      3 N          63.8674   88.2183   16.6417 N.ar    1  UNL1       -0.2294
      4 C          63.5637   88.9871   15.3899 C.ar    1  UNL1        0.1174
      5 C          63.4887   90.4586   15.1091 C.ar    1  UNL1        0.1193
      6 N          63.1558   90.9427   13.7289 N.ar    1  UNL1       -0.2421
      7 C          62.8979   89.9552   12.6297 C.ar    1  UNL1        0.0850
      8 C          62.5650   90.4393   11.2495 C.ar    1  UNL1        0.0488
      9 C          62.3072   89.4519   10.1502 C.ar    1  UNL1        0.1416
     10 F          61.9743   89.9359    8.7700 F       1  UNL1       -0.2041
     11 C          62.3822   87.9803   10.4311 C.ar    1  UNL1        0.0284
     12 C          62.7150   87.4962   11.8112 C.ar    1  UNL1        0.0052
     13 C          62.9729   88.4837   12.9105 C.ar    1  UNL1        0.0351
     14 C          63.3058   87.9996   14.2906 C.ar    1  UNL1        0.0816
     15 N          63.4501   86.6206   14.8630 N.ar    1  UNL1       -0.3138
     16 C          63.2776   85.3326   14.1139 C.3     1  UNL1        0.1224
     17 C          63.9718   85.1305   12.7997 C.3     1  UNL1        0.0469
     18 C          63.7993   83.8425   12.0506 C.3     1  UNL1        0.0956
     19 N          62.9325   82.7565   12.6156 N.am    1  UNL1       -0.2746
     20 C          62.7600   81.4684   11.8665 C.2     1  UNL1        0.2556
     21 O          61.8933   80.3825   12.4316 O.2     1  UNL1       -0.2722
     22 C          62.2383   82.9585   13.9299 C.3     1  UNL1        0.1306
     23 C          62.4108   84.2465   14.6790 C.3     1  UNL1        0.2011
     24 F          61.7166   84.4485   15.9932 F       1  UNL1       -0.2334
     25 C          63.4542   81.2664   10.5522 C.3     1  UNL1        0.2232
     26 O          63.0752   80.1112    9.6737 O.3     1  UNL1       -0.3737
     27 H          63.3132   79.2795   10.1125 H       1  UNL1        0.2110
     28 C          62.1243   86.9928    9.3318 C.ar    1  UNL1        0.0129
     29 C          63.2297   86.1002    8.8509 C.ar    1  UNL1        0.0040
     30 C          62.9719   85.1127    7.7516 C.ar    1  UNL1        0.0377
     31 C          61.6085   85.0179    7.1333 C.ar    1  UNL1        0.1495
     32 C          60.5031   85.9105    7.6142 C.ar    1  UNL1        0.0490
     33 C          60.7610   86.8979    8.7135 C.ar    1  UNL1        0.0608
     34 CL         59.6556   87.7905    9.1944 Cl      1  UNL1       -0.0821
     35 O          61.3506   84.0304    6.0340 O.3     1  UNL1       -0.4223
     36 C          61.6240   84.4072    4.6080 C.ar    1  UNL1        0.3246
     37 N          60.8100   83.8020    3.5030 N.ar    1  UNL1       -0.1924
     38 C          61.0835   84.1787    2.0771 C.ar    1  UNL1        0.1053
     39 C          62.1710   85.1607    1.7561 C.ar    1  UNL1        0.0416
     40 C          62.9851   85.7659    2.8612 C.ar    1  UNL1        0.1053
     41 N          62.7116   85.3892    4.2871 N.ar    1  UNL1       -0.1924
@<TRIPOS>BOND
     1     1     2    1
     2     2     3   ar
     3     3     4   ar
     4     4     5   ar
     5     5     6   ar
     6     6     7   ar
     7     7     8   ar
     8     8     9   ar
     9     9    10    1
    10     9    11   ar
    11    11    28    1
    12    28    29   ar
    13    29    30   ar
    14    30    31   ar
    15    31    35    1
    16    35    36    1
    17    36    37   ar
    18    37    38   ar
    19    38    39   ar
    20    39    40   ar
    21    40    41   ar
    22    31    32   ar
    23    32    33   ar
    24    33    34    1
    25    11    12   ar
    26    12    13   ar
    27    13    14   ar
    28    14    15   ar
    29    16    15    1
    30    16    17    1
    31    17    18    1
    32    18    19    1
    33    19    20   am
    34    20    21    2
    35    20    25    1
    36    25    26    1
    37    19    22    1
    38    22    23    1
    39    23    24    1
    40    15     2   ar
    41    23    16    1
    42    14     4   ar
    43    13     7   ar
    44    33    28   ar
    45    41    36   ar
    46    26    27    1
@<TRIPOS>MOLECULE
*****
 41 46 0 0 0
SMALL
GASTEIGER

@<TRIPOS>ATOM
      1 C          63.6371   84.8763   17.8660 C.3     1  UNL1        0.0718
      2 C          63.3214   84.6526   16.4167 C.ar    1  UNL1        0.1208
      3 N          62.9756   83.3381   15.7824 N.ar    1  UNL1       -0.2294
      4 C          62.7366   83.5771   14.3210 C.ar    1  UNL1        0.1174
      5 C          62.3642   82.6522   13.2004 C.ar    1  UNL1        0.1193
      6 N          62.1900   83.1896   11.8109 N.ar    1  UNL1       -0.2421
      7 C          62.3881   84.6520   11.5420 C.ar    1  UNL1        0.0850
      8 C          62.2138   85.1894   10.1524 C.ar    1  UNL1        0.0488
      9 C          62.4120   86.6517    9.8835 C.ar    1  UNL1        0.1416
     10 F          62.2377   87.1891    8.4940 F       1  UNL1       -0.2041
     11 C          62.7844   87.5767   11.0042 C.ar    1  UNL1        0.0284
     12 C          62.9587   87.0392   12.3937 C.ar    1  UNL1        0.0052
     13 C          62.7605   85.5769   12.6626 C.ar    1  UNL1        0.0351
     14 C          62.9348   85.0395   14.0521 C.ar    1  UNL1        0.0816
     15 N          63.2962   85.7041   15.3473 N.ar    1  UNL1       -0.3138
     16 C          63.5822   87.1640   15.5394 C.3     1  UNL1        0.1224
     17 C          64.6504   87.8325   14.7258 C.3     1  UNL1        0.0469
     18 C          64.9364   89.2924   14.9178 C.3     1  UNL1        0.0956
     19 N          64.1541   90.0839   15.9236 N.am    1  UNL1       -0.2746
     20 C          64.4401   91.5438   16.1157 C.2     1  UNL1        0.2556
     21 O          63.6579   92.3352   17.1215 O.2     1  UNL1       -0.2722
     22 C          63.0859   89.4155   16.7373 C.3     1  UNL1        0.1306
     23 C          62.7999   87.9556   16.5452 C.3     1  UNL1        0.2011
     24 F          61.7317   87.2872   17.3589 F       1  UNL1       -0.2334
     25 C          65.5084   92.2122   15.3020 C.3     1  UNL1        0.2232
     26 O          66.5136   93.1024   15.9705 O.3     1  UNL1       -0.3737
     27 H          66.0658   93.8862   16.3257 H       1  UNL1        0.2110
     28 C          62.9826   89.0390   10.7353 C.ar    1  UNL1        0.0129
     29 C          64.0923   89.7833   11.4170 C.ar    1  UNL1        0.0040
     30 C          64.2904   91.2456   11.1481 C.ar    1  UNL1        0.0377
     31 C          63.3789   91.9637   10.1975 C.ar    1  UNL1        0.1495
     32 C          62.2693   91.2193    9.5158 C.ar    1  UNL1        0.0490
     33 C          62.0711   89.7570    9.7847 C.ar    1  UNL1        0.0608
     34 CL         60.9615   89.0127    9.1030 Cl      1  UNL1       -0.0821
     35 O          63.5771   93.4260    9.9286 O.3     1  UNL1       -0.4223
     36 C          64.9604   94.0060    9.9184 C.ar    1  UNL1        0.3246
     37 N          66.1508   93.1041    9.7792 N.ar    1  UNL1       -0.1924
     38 C          67.5342   93.6840    9.7691 C.ar    1  UNL1        0.1053
     39 C          67.7270   95.1660    9.8981 C.ar    1  UNL1        0.0416
     40 C          66.5365   96.0679   10.0373 C.ar    1  UNL1        0.1053
     41 N          65.1533   95.4879   10.0474 N.ar    1  UNL1       -0.1924
@<TRIPOS>BOND
     1     1     2    1
     2     2     3   ar
     3     3     4   ar
     4     4     5   ar
     5     5     6   ar
     6     6     7   ar
     7     7     8   ar
     8     8     9   ar
     9     9    10    1
    10     9    11   ar
    11    11    28    1
    12    28    29   ar
    13    29    30   ar
    14    30    31   ar
    15    31    35    1
    16    35    36    1
    17    36    37   ar
    18    37    38   ar
    19    38    39   ar
    20    39    40   ar
    21    40    41   ar
    22    31    32   ar
    23    32    33   ar
    24    33    34    1
    25    11    12   ar
    26    12    13   ar
    27    13    14   ar
    28    14    15   ar
    29    16    15    1
    30    16    17    1
    31    17    18    1
    32    18    19    1
    33    19    20   am
    34    20    21    2
    35    20    25    1
    36    25    26    1
    37    19    22    1
    38    22    23    1
    39    23    24    1
    40    15     2   ar
    41    23    16    1
    42    14     4   ar
    43    13     7   ar
    44    33    28   ar
    45    41    36   ar
    46    26    27    1
