@<TRIPOS>MOLECULE
*****
 62 68 0 0 0
SMALL
GASTEIGER

@<TRIPOS>ATOM
      1 N          62.2196   94.3288   -3.4884 N.3     1  UNL1       -0.1862
      2 C          61.0830   94.3517   -4.4669 C.3     1  UNL1        0.1775
      3 C          59.6740   94.1735   -3.9842 C.2     1  UNL1        0.2452
      4 O          58.5374   94.1964   -4.9628 O.2     1  UNL1       -0.2732
      5 N          59.4016   93.9724   -2.5230 N.am    1  UNL1       -0.2541
      6 C          57.9927   93.7941   -2.0402 C.3     1  UNL1        0.1577
      7 C          57.7203   93.5930   -0.5790 C.2     1  UNL1        0.2445
      8 O          56.3113   93.4148   -0.0962 O.2     1  UNL1       -0.2731
      9 N          58.8569   93.5701    0.3996 N.am    1  UNL1       -0.2705
     10 C          60.2659   93.7483   -0.0831 C.3     1  UNL1        0.1359
     11 C          60.5382   93.9495   -1.5444 C.3     1  UNL1        0.1908
     12 N          61.9472   94.1277   -2.0272 N.am    1  UNL1       -0.1863
     13 C          63.0838   94.1048   -1.0485 C.2     1  UNL1        0.3191
     14 O          62.8115   93.9036    0.4127 O.2     1  UNL1       -0.2512
     15 N          64.4928   94.2830   -1.5313 N.am    1  UNL1       -0.2836
     16 H          64.6716   94.4150   -2.4904 H       1  UNL1        0.1513
     17 C          63.6286   94.5070   -3.9711 C.3     1  UNL1        0.1188
     18 C          64.8727   92.3987   -4.8411 C.2     1  UNL1       -0.0034
     19 C          64.1406   93.6795   -5.1125 C.2     1  UNL1       -0.0071
     20 C          56.8561   93.8170   -3.0188 C.3     1  UNL1        0.0556
     21 C          56.2318   92.5311   -3.4734 C.ar    1  UNL1       -0.0198
     22 C          55.9651   91.4359   -2.4839 C.ar    1  UNL1       -0.0011
     23 C          55.3408   90.1500   -2.9386 C.ar    1  UNL1        0.0363
     24 C          54.9833   89.9593   -4.3828 C.ar    1  UNL1        0.1337
     25 O          54.3590   88.6734   -4.8374 O.3     1  UNL1       -0.5055
     26 C          55.2500   91.0546   -5.3724 C.ar    1  UNL1        0.0363
     27 C          55.8742   92.3405   -4.9177 C.ar    1  UNL1       -0.0011
     28 H          54.1924   87.9892   -4.2193 H       1  UNL1        0.2922
     29 C          58.5845   93.3690    1.8609 C.3     1  UNL1        0.1217
     30 C          59.5494   92.5881    2.7032 C.ar    1  UNL1        0.0135
     31 C          61.0116   92.5933    2.3687 C.ar    1  UNL1       -0.0012
     32 C          61.9765   91.8126    3.2109 C.ar    1  UNL1       -0.0002
     33 C          61.4791   91.0265    4.3876 C.ar    1  UNL1        0.0016
     34 C          60.0169   91.0213    4.7221 C.ar    1  UNL1        0.0214
     35 C          59.2391   90.3455    5.8122 C.ar    1  UNL1        0.0722
     36 C          57.7935   90.7087    5.6437 C.ar    1  UNL1        0.0805
     37 N          57.6780   91.6089    4.4495 N.ar    1  UNL1       -0.3241
     38 C          56.4107   92.2103    3.9181 C.3     1  UNL1        0.1305
     39 C          59.0521   91.8021    3.8799 C.ar    1  UNL1        0.0577
     40 C          59.8072   89.4617    6.8829 C.2     1  UNL1        0.2510
     41 O          59.6944   87.9708    6.7628 O.2     1  UNL1       -0.2698
     42 N          60.4881   90.0689    8.0736 N.am    1  UNL1       -0.2791
     43 H          60.5621   91.0474    8.1524 H       1  UNL1        0.1552
     44 C          61.0561   89.1852    9.1443 C.ar    1  UNL1        0.0702
     45 C          61.9709   89.7606   10.1845 C.ar    1  UNL1        0.0211
     46 C          62.5390   88.8770   11.2552 C.ar    1  UNL1        0.0590
     47 C          62.1924   87.4179   11.2857 C.ar    1  UNL1        0.2250
     48 N          61.2776   86.8425   10.2454 N.ar    1  UNL1       -0.2088
     49 C          60.7095   87.7261    9.1747 C.ar    1  UNL1        0.1167
     50 O          62.7604   86.5342   12.3563 O.3     1  UNL1       -0.4587
     51 C          62.5405   85.0515   12.3000 C.3     1  UNL1        0.2244
     52 C          63.6038   84.1161   12.7943 C.3     1  UNL1        0.1202
     53 N          63.3113   83.1811   13.9302 N.3     1  UNL1       -0.2672
     54 C          62.7188   83.7095   15.2028 C.3     1  UNL1        0.0898
     55 C          63.6113   81.7178   13.7933 C.3     1  UNL1        0.0898
     56 C          65.6294   94.2601   -0.5527 C.3     1  UNL1        0.1177
     57 C          65.4452   94.8259    0.8242 C.ar    1  UNL1       -0.0025
     58 C          65.6613   96.2900    1.0685 C.ar    1  UNL1       -0.0026
     59 C          65.4771   96.8558    2.4454 C.ar    1  UNL1       -0.0003
     60 C          65.0767   95.9575    3.5780 C.ar    1  UNL1       -0.0000
     61 C          64.8606   94.4934    3.3337 C.ar    1  UNL1       -0.0003
     62 C          65.0448   93.9276    1.9568 C.ar    1  UNL1       -0.0026
@<TRIPOS>BOND
     1    18    19    2
     2    19    17    1
     3    17     1    1
     4     1     2    1
     5     2     3    1
     6     3     4    2
     7     3     5   am
     8     5     6    1
     9     6    20    1
    10    20    21    1
    11    21    22   ar
    12    22    23   ar
    13    23    24   ar
    14    24    25    1
    15    24    26   ar
    16    26    27   ar
    17     6     7    1
    18     7     8    2
    19     7     9   am
    20     9    29    1
    21    29    30    1
    22    30    31   ar
    23    31    32   ar
    24    32    33   ar
    25    33    34   ar
    26    34    35   ar
    27    35    40    1
    28    40    41    2
    29    40    42   am
    30    42    44    1
    31    44    45   ar
    32    45    46   ar
    33    46    47   ar
    34    47    50    1
    35    50    51    1
    36    51    52    1
    37    52    53    1
    38    53    54    1
    39    53    55    1
    40    47    48   ar
    41    48    49   ar
    42    35    36   ar
    43    36    37   ar
    44    37    38    1
    45    37    39   ar
    46     9    10    1
    47    11    10    1
    48    11    12    1
    49    12    13   am
    50    13    14    2
    51    13    15   am
    52    15    56    1
    53    56    57    1
    54    57    58   ar
    55    58    59   ar
    56    59    60   ar
    57    60    61   ar
    58    61    62   ar
    59    12     1    1
    60    62    57   ar
    61    11     5    1
    62    27    21   ar
    63    39    30   ar
    64    39    34   ar
    65    49    44   ar
    66    25    28    1
    67    42    43    1
    68    15    16    1
