@<TRIPOS>MOLECULE
*****
 35 38 0 0 0
SMALL
GASTEIGER

@<TRIPOS>ATOM
      1 N          62.8924   90.7852   11.6669 N.am    1  UNL1       -0.2438
      2 C          63.3461   91.4596   10.4063 C.3     1  UNL1        0.1009
      3 C          64.5186   92.3947   10.4361 C.3     1  UNL1        0.0661
      4 C          65.2374   92.6553   11.7266 C.3     1  UNL1        0.1591
      5 O          64.7837   91.9808   12.9873 O.3     1  UNL1       -0.4375
      6 C          63.6112   91.0458   12.9575 C.2     1  UNL1        0.4051
      7 O          63.1575   90.3713   14.2181 O.2     1  UNL1       -0.2262
      8 C          66.0372   93.5252   10.8027 C.ar    1  UNL1        0.0139
      9 C          67.1282   92.9261    9.9654 C.ar    1  UNL1        0.0014
     10 C          67.9280   93.7960    9.0415 C.ar    1  UNL1        0.0294
     11 C          67.6368   95.2649    8.9549 C.ar    1  UNL1        0.1401
     12 F          68.4366   96.1348    8.0309 F       1  UNL1       -0.2042
     13 C          66.5459   95.8640    9.7921 C.ar    1  UNL1        0.0294
     14 C          65.7460   94.9941   10.7161 C.ar    1  UNL1        0.0014
     15 C          60.3239   90.3983   11.6106 C.3     1  UNL1        0.0265
     16 C          61.7199   89.8501   11.6371 C.3     1  UNL1        0.1011
     17 C          61.9434   88.3668   11.6337 C.ar    1  UNL1       -0.0042
     18 C          61.0630   87.4776   10.8067 C.ar    1  UNL1       -0.0027
     19 C          61.2865   85.9943   10.8033 C.ar    1  UNL1       -0.0002
     20 C          62.3905   85.4004   11.6270 C.ar    1  UNL1        0.0021
     21 C          63.2709   86.2896   12.4540 C.ar    1  UNL1       -0.0002
     22 C          63.0474   87.7728   12.4574 C.ar    1  UNL1       -0.0027
     23 C          62.6140   83.9171   11.6236 C.ar    1  UNL1        0.0276
     24 C          62.1872   83.0916   12.8010 C.ar    1  UNL1        0.0045
     25 C          62.4108   81.6083   12.7976 C.ar    1  UNL1        0.0298
     26 C          63.0611   80.9506   11.6168 C.ar    1  UNL1        0.1424
     27 F          63.2846   79.4674   11.6133 F       1  UNL1       -0.2041
     28 C          63.4879   81.7761   10.4393 C.ar    1  UNL1        0.0592
     29 C          63.2644   83.2593   10.4427 C.ar    1  UNL1        0.1423
     30 F          63.6912   84.0849    9.2653 F       1  UNL1       -0.2041
     31 C          66.2340   93.2180   12.6962 C.3     1  UNL1        0.0614
     32 C          66.9564   92.3063   13.6431 C.3     1  UNL1        0.0691
     33 N          68.3916   91.9491   13.3924 N.3     1  UNL1       -0.3210
     34 H          68.4601   91.3966   12.5377 H       1  UNL1        0.1189
     35 H          68.7490   91.4057   14.1781 H       1  UNL1        0.1189
@<TRIPOS>BOND
     1    16    15    1
     2    16    17    1
     3    17    18   ar
     4    18    19   ar
     5    19    20   ar
     6    20    23    1
     7    23    24   ar
     8    24    25   ar
     9    25    26   ar
    10    26    27    1
    11    26    28   ar
    12    28    29   ar
    13    29    30    1
    14    20    21   ar
    15    21    22   ar
    16    16     1    1
    17     1     2    1
    18     2     3    1
    19     3     4    1
    20     4    31    1
    21    31    32    1
    22    32    33    1
    23     4     8    1
    24     8     9   ar
    25     9    10   ar
    26    10    11   ar
    27    11    12    1
    28    11    13   ar
    29    13    14   ar
    30     4     5    1
    31     5     6    1
    32     6     7    2
    33    22    17   ar
    34     6     1   am
    35    29    23   ar
    36    14     8   ar
    37    33    34    1
    38    33    35    1
@<TRIPOS>MOLECULE
*****
 35 38 0 0 0
SMALL
GASTEIGER

@<TRIPOS>ATOM
      1 N          63.3078   90.3330   12.0552 N.am    1  UNL1       -0.2438
      2 C          64.0284   90.2357   13.3671 C.3     1  UNL1        0.1009
      3 C          65.2323   91.0919   13.6269 C.3     1  UNL1        0.0661
      4 C          65.7156   92.0455   12.5747 C.3     1  UNL1        0.1591
      5 O          64.9950   92.1429   11.2627 O.3     1  UNL1       -0.4375
      6 C          63.7911   91.2866   11.0029 C.2     1  UNL1        0.4051
      7 O          63.0705   91.3840    9.6910 O.2     1  UNL1       -0.2262
      8 C          66.7259   92.3115   13.6511 C.ar    1  UNL1        0.0139
      9 C          66.2834   92.8550   14.9773 C.ar    1  UNL1        0.0014
     10 C          67.2937   93.1209   16.0537 C.ar    1  UNL1        0.0294
     11 C          68.7465   92.8433   15.8038 C.ar    1  UNL1        0.1401
     12 F          69.7568   93.1092   16.8802 F       1  UNL1       -0.2042
     13 C          69.1889   92.2997   14.4777 C.ar    1  UNL1        0.0294
     14 C          68.1786   92.0338   13.4013 C.ar    1  UNL1        0.0014
     15 C          60.7682   90.1145   11.5529 C.3     1  UNL1        0.0265
     16 C          62.1039   89.4767   11.7954 C.3     1  UNL1        0.1011
     17 C          62.2359   87.9826   11.7781 C.ar    1  UNL1       -0.0042
     18 C          63.1752   87.3016   12.7288 C.ar    1  UNL1       -0.0027
     19 C          63.3071   85.8075   12.7115 C.ar    1  UNL1       -0.0002
     20 C          62.4998   84.9945   11.7435 C.ar    1  UNL1        0.0021
     21 C          61.5604   85.6755   10.7928 C.ar    1  UNL1       -0.0002
     22 C          61.4285   87.1695   10.8101 C.ar    1  UNL1       -0.0027
     23 C          62.6317   83.5003   11.7262 C.ar    1  UNL1        0.0276
     24 C          62.1850   82.6942   12.9097 C.ar    1  UNL1        0.0045
     25 C          62.3170   81.2001   12.8924 C.ar    1  UNL1        0.0298
     26 C          62.8957   80.5122   11.6916 C.ar    1  UNL1        0.1424
     27 F          63.0276   79.0181   11.6743 F       1  UNL1       -0.2041
     28 C          63.3424   81.3183   10.5081 C.ar    1  UNL1        0.0592
     29 C          63.2104   82.8124   10.5255 C.ar    1  UNL1        0.1423
     30 F          63.6571   83.6186    9.3420 F       1  UNL1       -0.2041
     31 C          66.5497   93.0915   11.8964 C.3     1  UNL1        0.0614
     32 C          66.0204   94.4859   11.7370 C.3     1  UNL1        0.0691
     33 N          65.3526   94.8928   10.4569 N.3     1  UNL1       -0.3210
     34 H          66.0350   94.8817    9.6989 H       1  UNL1        0.1189
     35 H          64.9707   95.8334   10.5567 H       1  UNL1        0.1189
@<TRIPOS>BOND
     1    16    15    1
     2    16    17    1
     3    17    18   ar
     4    18    19   ar
     5    19    20   ar
     6    20    23    1
     7    23    24   ar
     8    24    25   ar
     9    25    26   ar
    10    26    27    1
    11    26    28   ar
    12    28    29   ar
    13    29    30    1
    14    20    21   ar
    15    21    22   ar
    16    16     1    1
    17     1     2    1
    18     2     3    1
    19     3     4    1
    20     4    31    1
    21    31    32    1
    22    32    33    1
    23     4     8    1
    24     8     9   ar
    25     9    10   ar
    26    10    11   ar
    27    11    12    1
    28    11    13   ar
    29    13    14   ar
    30     4     5    1
    31     5     6    1
    32     6     7    2
    33    22    17   ar
    34     6     1   am
    35    29    23   ar
    36    14     8   ar
    37    33    34    1
    38    33    35    1
@<TRIPOS>MOLECULE
*****
 35 38 0 0 0
SMALL
GASTEIGER

@<TRIPOS>ATOM
      1 N          63.3801   90.4610   11.9719 N.am    1  UNL1       -0.2438
      2 C          64.1040   90.3525   13.2811 C.3     1  UNL1        0.1009
      3 C          65.3063   91.2093   13.5466 C.3     1  UNL1        0.0661
      4 C          65.7847   92.1744   12.5028 C.3     1  UNL1        0.1591
      5 O          65.0608   92.2829   11.1934 O.3     1  UNL1       -0.4375
      6 C          63.8585   91.4262   10.9280 C.2     1  UNL1        0.4051
      7 O          63.1346   91.5346    9.6188 O.2     1  UNL1       -0.2262
      8 C          66.7969   92.4322   13.5794 C.ar    1  UNL1        0.0139
      9 C          68.2290   92.0367   13.3727 C.ar    1  UNL1        0.0014
     10 C          69.2412   92.2946   14.4493 C.ar    1  UNL1        0.0294
     11 C          68.8212   92.9479   15.7326 C.ar    1  UNL1        0.1401
     12 F          69.8334   93.2058   16.8092 F       1  UNL1       -0.2042
     13 C          67.3891   93.3435   15.9393 C.ar    1  UNL1        0.0294
     14 C          66.3769   93.0856   14.8626 C.ar    1  UNL1        0.0014
     15 C          60.8673   90.2409   11.3496 C.3     1  UNL1        0.0265
     16 C          62.1778   89.6043   11.7064 C.3     1  UNL1        0.1011
     17 C          62.2860   88.1109   11.7978 C.ar    1  UNL1       -0.0042
     18 C          61.4343   87.2422   10.9204 C.ar    1  UNL1       -0.0027
     19 C          61.5426   85.7489   11.0118 C.ar    1  UNL1       -0.0002
     20 C          62.5024   85.1244   11.9806 C.ar    1  UNL1        0.0021
     21 C          63.3541   85.9932   12.8581 C.ar    1  UNL1       -0.0002
     22 C          63.2458   87.4864   12.7667 C.ar    1  UNL1       -0.0027
     23 C          62.6107   83.6311   12.0720 C.ar    1  UNL1        0.0276
     24 C          63.0232   82.8340   10.8701 C.ar    1  UNL1        0.0045
     25 C          63.1314   81.3407   10.9615 C.ar    1  UNL1        0.0298
     26 C          62.8271   80.6444   12.2548 C.ar    1  UNL1        0.1424
     27 F          62.9353   79.1512   12.3462 F       1  UNL1       -0.2041
     28 C          62.4145   81.4415   13.4567 C.ar    1  UNL1        0.0592
     29 C          62.3063   82.9348   13.3653 C.ar    1  UNL1        0.1423
     30 F          61.8938   83.7319   14.5672 F       1  UNL1       -0.2041
     31 C          66.6147   93.2291   11.8328 C.3     1  UNL1        0.0614
     32 C          66.0705   94.6166   11.6638 C.3     1  UNL1        0.0691
     33 N          65.2899   94.9714   10.4330 N.3     1  UNL1       -0.3210
     34 H          65.9016   94.9275    9.6180 H       1  UNL1        0.1189
     35 H          64.9167   95.9159   10.5276 H       1  UNL1        0.1189
@<TRIPOS>BOND
     1    16    15    1
     2    16    17    1
     3    17    18   ar
     4    18    19   ar
     5    19    20   ar
     6    20    23    1
     7    23    24   ar
     8    24    25   ar
     9    25    26   ar
    10    26    27    1
    11    26    28   ar
    12    28    29   ar
    13    29    30    1
    14    20    21   ar
    15    21    22   ar
    16    16     1    1
    17     1     2    1
    18     2     3    1
    19     3     4    1
    20     4    31    1
    21    31    32    1
    22    32    33    1
    23     4     8    1
    24     8     9   ar
    25     9    10   ar
    26    10    11   ar
    27    11    12    1
    28    11    13   ar
    29    13    14   ar
    30     4     5    1
    31     5     6    1
    32     6     7    2
    33    22    17   ar
    34     6     1   am
    35    29    23   ar
    36    14     8   ar
    37    33    34    1
    38    33    35    1
@<TRIPOS>MOLECULE
*****
 35 38 0 0 0
SMALL
GASTEIGER

@<TRIPOS>ATOM
      1 N          62.5444   87.8838   12.4049 N.am    1  UNL1       -0.2438
      2 C          62.1679   86.8575   11.3778 C.3     1  UNL1        0.1009
      3 C          62.6611   85.4472   11.5111 C.3     1  UNL1        0.0661
      4 C          63.5307   85.0632   12.6713 C.3     1  UNL1        0.1591
      5 O          63.9072   86.0895   13.6985 O.3     1  UNL1       -0.4375
      6 C          63.4141   87.4999   13.5652 C.2     1  UNL1        0.4051
      7 O          63.7905   88.5262   14.5922 O.2     1  UNL1       -0.2262
      8 C          63.4460   83.7443   11.9616 C.ar    1  UNL1        0.0139
      9 C          62.7013   82.6024   12.5873 C.ar    1  UNL1        0.0014
     10 C          62.6166   81.2836   11.8776 C.ar    1  UNL1        0.0294
     11 C          63.2766   81.1069   10.5423 C.ar    1  UNL1        0.1401
     12 F          63.1919   79.7880    9.8326 F       1  UNL1       -0.2042
     13 C          64.0212   82.2488    9.9166 C.ar    1  UNL1        0.0294
     14 C          64.1059   83.5676   10.6263 C.ar    1  UNL1        0.0014
     15 C          60.6353   89.6310   12.6341 C.3     1  UNL1        0.0265
     16 C          62.0513   89.2942   12.2716 C.3     1  UNL1        0.1011
     17 C          62.9742   90.3677   11.7758 C.ar    1  UNL1       -0.0042
     18 C          62.9041   90.8157   10.3460 C.ar    1  UNL1       -0.0027
     19 C          63.8270   91.8892    9.8503 C.ar    1  UNL1       -0.0002
     20 C          64.8201   92.5147   10.7844 C.ar    1  UNL1        0.0021
     21 C          64.8902   92.0668   12.2142 C.ar    1  UNL1       -0.0002
     22 C          63.9673   90.9933   12.7099 C.ar    1  UNL1       -0.0027
     23 C          65.7430   93.5883   10.2886 C.ar    1  UNL1        0.0276
     24 C          65.3010   95.0216   10.3002 C.ar    1  UNL1        0.0045
     25 C          66.2239   96.0951    9.8044 C.ar    1  UNL1        0.0298
     26 C          67.5889   95.7353    9.2971 C.ar    1  UNL1        0.1424
     27 F          68.5118   96.8087    8.8013 F       1  UNL1       -0.2041
     28 C          68.0309   94.3019    9.2856 C.ar    1  UNL1        0.0592
     29 C          67.1080   93.2284    9.7813 C.ar    1  UNL1        0.1423
     30 F          67.5500   91.7950    9.7698 F       1  UNL1       -0.2041
     31 C          64.3709   84.2211   13.5852 C.3     1  UNL1        0.0614
     32 C          65.1911   84.8703   14.6602 C.3     1  UNL1        0.0691
     33 N          66.6851   84.9216   14.5359 N.3     1  UNL1       -0.3210
     34 H          67.0627   83.9751   14.5811 H       1  UNL1        0.1189
     35 H          67.0708   85.4783   15.2985 H       1  UNL1        0.1189
@<TRIPOS>BOND
     1    16    15    1
     2    16    17    1
     3    17    18   ar
     4    18    19   ar
     5    19    20   ar
     6    20    23    1
     7    23    24   ar
     8    24    25   ar
     9    25    26   ar
    10    26    27    1
    11    26    28   ar
    12    28    29   ar
    13    29    30    1
    14    20    21   ar
    15    21    22   ar
    16    16     1    1
    17     1     2    1
    18     2     3    1
    19     3     4    1
    20     4    31    1
    21    31    32    1
    22    32    33    1
    23     4     8    1
    24     8     9   ar
    25     9    10   ar
    26    10    11   ar
    27    11    12    1
    28    11    13   ar
    29    13    14   ar
    30     4     5    1
    31     5     6    1
    32     6     7    2
    33    22    17   ar
    34     6     1   am
    35    29    23   ar
    36    14     8   ar
    37    33    34    1
    38    33    35    1
@<TRIPOS>MOLECULE
*****
 35 38 0 0 0
SMALL
GASTEIGER

@<TRIPOS>ATOM
      1 N          62.1281   88.6393   11.0491 N.am    1  UNL1       -0.2438
      2 C          62.6734   87.5646   11.9421 C.3     1  UNL1        0.1009
      3 C          62.6954   86.1398   11.4737 C.3     1  UNL1        0.0661
      4 C          62.1721   85.7896   10.1123 C.3     1  UNL1        0.1591
      5 O          61.6268   86.8644    9.2192 O.3     1  UNL1       -0.4375
      6 C          61.6047   88.2892    9.6876 C.2     1  UNL1        0.4051
      7 O          61.0594   89.3639    8.7945 O.2     1  UNL1       -0.2262
      8 C          62.5856   84.4292   10.5902 C.ar    1  UNL1        0.0139
      9 C          63.5169   83.5944    9.7620 C.ar    1  UNL1        0.0014
     10 C          63.9304   82.2340   10.2398 C.ar    1  UNL1        0.0294
     11 C          63.4126   81.7085   11.5459 C.ar    1  UNL1        0.1401
     12 F          63.8261   80.3481   12.0237 F       1  UNL1       -0.2042
     13 C          62.4814   82.5433   12.3741 C.ar    1  UNL1        0.0294
     14 C          62.0679   83.9037   11.8962 C.ar    1  UNL1        0.0014
     15 C          60.8971   90.9166   11.2691 C.3     1  UNL1        0.0265
     16 C          62.1060   90.0641   11.5175 C.3     1  UNL1        0.1011
     17 C          63.2929   90.6364   12.2343 C.ar    1  UNL1       -0.0042
     18 C          63.5900   90.2199   13.6444 C.ar    1  UNL1       -0.0027
     19 C          64.7768   90.7922   14.3612 C.ar    1  UNL1       -0.0002
     20 C          65.6666   91.7809   13.6679 C.ar    1  UNL1        0.0021
     21 C          65.3696   92.1974   12.2579 C.ar    1  UNL1       -0.0002
     22 C          64.1827   91.6251   11.5411 C.ar    1  UNL1       -0.0027
     23 C          66.8536   92.3532   14.3848 C.ar    1  UNL1        0.0276
     24 C          66.6599   93.1377   15.6485 C.ar    1  UNL1        0.0045
     25 C          67.8468   93.7100   16.3654 C.ar    1  UNL1        0.0298
     26 C          69.2273   93.4977   15.8184 C.ar    1  UNL1        0.1424
     27 F          70.4142   94.0699   16.5352 F       1  UNL1       -0.2041
     28 C          69.4209   92.7131   14.5547 C.ar    1  UNL1        0.0592
     29 C          68.2341   92.1409   13.8379 C.ar    1  UNL1        0.1423
     30 F          68.4277   91.3563   12.5741 F       1  UNL1       -0.2041
     31 C          61.7924   84.9671    8.9168 C.3     1  UNL1        0.0614
     32 C          61.2675   85.6369    7.6816 C.3     1  UNL1        0.0691
     33 N          59.7922   85.6625    7.4117 N.3     1  UNL1       -0.3210
     34 H          59.4605   84.7125    7.2447 H       1  UNL1        0.1189
     35 H          59.6069   86.2368    6.5893 H       1  UNL1        0.1189
@<TRIPOS>BOND
     1    16    15    1
     2    16    17    1
     3    17    18   ar
     4    18    19   ar
     5    19    20   ar
     6    20    23    1
     7    23    24   ar
     8    24    25   ar
     9    25    26   ar
    10    26    27    1
    11    26    28   ar
    12    28    29   ar
    13    29    30    1
    14    20    21   ar
    15    21    22   ar
    16    16     1    1
    17     1     2    1
    18     2     3    1
    19     3     4    1
    20     4    31    1
    21    31    32    1
    22    32    33    1
    23     4     8    1
    24     8     9   ar
    25     9    10   ar
    26    10    11   ar
    27    11    12    1
    28    11    13   ar
    29    13    14   ar
    30     4     5    1
    31     5     6    1
    32     6     7    2
    33    22    17   ar
    34     6     1   am
    35    29    23   ar
    36    14     8   ar
    37    33    34    1
    38    33    35    1
@<TRIPOS>MOLECULE
*****
 35 38 0 0 0
SMALL
GASTEIGER

@<TRIPOS>ATOM
      1 N          62.1537   88.6145   11.1032 N.am    1  UNL1       -0.2438
      2 C          62.6754   87.5282   11.9963 C.3     1  UNL1        0.1009
      3 C          62.7028   86.1084   11.5130 C.3     1  UNL1        0.0661
      4 C          62.2086   85.7750   10.1366 C.3     1  UNL1        0.1591
      5 O          61.6869   86.8614    9.2434 O.3     1  UNL1       -0.4375
      6 C          61.6595   88.2812    9.7267 C.2     1  UNL1        0.4051
      7 O          61.1379   89.3675    8.8335 O.2     1  UNL1       -0.2262
      8 C          62.6066   84.4080   10.6087 C.ar    1  UNL1        0.0139
      9 C          62.0731   83.8779   11.9065 C.ar    1  UNL1        0.0014
     10 C          62.4711   82.5108   12.3785 C.ar    1  UNL1        0.0294
     11 C          63.4026   81.6740   11.5527 C.ar    1  UNL1        0.1401
     12 F          63.8006   80.3069   12.0248 F       1  UNL1       -0.2042
     13 C          63.9361   82.2041   10.2549 C.ar    1  UNL1        0.0294
     14 C          63.5381   83.5711    9.7828 C.ar    1  UNL1        0.0014
     15 C          60.9096   90.8811   11.3575 C.3     1  UNL1        0.0265
     16 C          62.1263   90.0343   11.5864 C.3     1  UNL1        0.1011
     17 C          63.3157   90.6072   12.2987 C.ar    1  UNL1       -0.0042
     18 C          64.1912   91.6109   11.6088 C.ar    1  UNL1       -0.0027
     19 C          65.3805   92.1838   12.3210 C.ar    1  UNL1       -0.0002
     20 C          65.6943   91.7529   13.7231 C.ar    1  UNL1        0.0021
     21 C          64.8188   90.7492   14.4130 C.ar    1  UNL1       -0.0002
     22 C          63.6295   90.1763   13.7008 C.ar    1  UNL1       -0.0027
     23 C          66.8837   92.3259   14.4353 C.ar    1  UNL1        0.0276
     24 C          66.6986   93.0744   15.7219 C.ar    1  UNL1        0.0045
     25 C          67.8880   93.6473   16.4341 C.ar    1  UNL1        0.0298
     26 C          69.2625   93.4717   15.8597 C.ar    1  UNL1        0.1424
     27 F          70.4518   94.0445   16.5719 F       1  UNL1       -0.2041
     28 C          69.4475   92.7231   14.5730 C.ar    1  UNL1        0.0592
     29 C          68.2582   92.1502   13.8609 C.ar    1  UNL1        0.1423
     30 F          68.4433   91.4016   12.5742 F       1  UNL1       -0.2041
     31 C          61.8526   84.9669    8.9241 C.3     1  UNL1        0.0614
     32 C          61.3210   85.6483    7.6981 C.3     1  UNL1        0.0691
     33 N          59.8486   85.6354    7.4118 N.3     1  UNL1       -0.3210
     34 H          59.5478   84.6798    7.2199 H       1  UNL1        0.1189
     35 H          59.6548   86.2223    6.6003 H       1  UNL1        0.1189
@<TRIPOS>BOND
     1    16    15    1
     2    16    17    1
     3    17    18   ar
     4    18    19   ar
     5    19    20   ar
     6    20    23    1
     7    23    24   ar
     8    24    25   ar
     9    25    26   ar
    10    26    27    1
    11    26    28   ar
    12    28    29   ar
    13    29    30    1
    14    20    21   ar
    15    21    22   ar
    16    16     1    1
    17     1     2    1
    18     2     3    1
    19     3     4    1
    20     4    31    1
    21    31    32    1
    22    32    33    1
    23     4     8    1
    24     8     9   ar
    25     9    10   ar
    26    10    11   ar
    27    11    12    1
    28    11    13   ar
    29    13    14   ar
    30     4     5    1
    31     5     6    1
    32     6     7    2
    33    22    17   ar
    34     6     1   am
    35    29    23   ar
    36    14     8   ar
    37    33    34    1
    38    33    35    1
@<TRIPOS>MOLECULE
*****
 35 38 0 0 0
SMALL
GASTEIGER

@<TRIPOS>ATOM
      1 N          62.0530   88.0598   11.1641 N.am    1  UNL1       -0.2438
      2 C          61.5599   88.0936    9.7479 C.3     1  UNL1        0.1009
      3 C          61.7582   86.9039    8.8561 C.3     1  UNL1        0.0661
      4 C          62.4497   85.6805    9.3804 C.3     1  UNL1        0.1591
      5 O          62.9429   85.6467   10.7967 O.3     1  UNL1       -0.4375
      6 C          62.7445   86.8363   11.6885 C.2     1  UNL1        0.4051
      7 O          63.2377   86.8025   13.1047 O.2     1  UNL1       -0.2262
      8 C          62.1620   85.2357    7.9770 C.ar    1  UNL1        0.0139
      9 C          63.2818   84.7746    7.0920 C.ar    1  UNL1        0.0014
     10 C          62.9941   84.3298    5.6886 C.ar    1  UNL1        0.0294
     11 C          61.5866   84.3462    5.1704 C.ar    1  UNL1        0.1401
     12 F          61.2989   83.9015    3.7670 F       1  UNL1       -0.2042
     13 C          60.4667   84.8074    6.0554 C.ar    1  UNL1        0.0294
     14 C          60.7545   85.2521    7.4588 C.ar    1  UNL1        0.0014
     15 C          60.4707   89.7582   12.3310 C.3     1  UNL1        0.0265
     16 C          61.8547   89.2495   12.0559 C.3     1  UNL1        0.1011
     17 C          63.0405   89.9305   12.6727 C.ar    1  UNL1       -0.0042
     18 C          63.7470   91.0253   11.9296 C.ar    1  UNL1       -0.0027
     19 C          64.9327   91.7062   12.5464 C.ar    1  UNL1       -0.0002
     20 C          65.4118   91.2923   13.9062 C.ar    1  UNL1        0.0021
     21 C          64.7053   90.1975   14.6492 C.ar    1  UNL1       -0.0002
     22 C          63.5196   89.5166   14.0325 C.ar    1  UNL1       -0.0027
     23 C          66.5976   91.9733   14.5229 C.ar    1  UNL1        0.0276
     24 C          67.9171   91.9739   13.8096 C.ar    1  UNL1        0.0045
     25 C          69.1029   92.6548   14.4263 C.ar    1  UNL1        0.0298
     26 C          68.9690   93.3352   15.7564 C.ar    1  UNL1        0.1424
     27 F          70.1547   94.0162   16.3732 F       1  UNL1       -0.2041
     28 C          67.6495   93.3346   16.4698 C.ar    1  UNL1        0.0592
     29 C          66.4638   92.6537   15.8530 C.ar    1  UNL1        0.1423
     30 F          65.1442   92.6531   16.5664 F       1  UNL1       -0.2041
     31 C          63.0413   84.3025    9.4174 C.3     1  UNL1        0.0614
     32 C          63.4954   83.7161   10.7211 C.3     1  UNL1        0.0691
     33 N          64.8318   83.0413   10.8150 N.3     1  UNL1       -0.3210
     34 H          64.8281   82.1983   10.2407 H       1  UNL1        0.1189
     35 H          65.0186   82.7904   11.7859 H       1  UNL1        0.1189
@<TRIPOS>BOND
     1    16    15    1
     2    16    17    1
     3    17    18   ar
     4    18    19   ar
     5    19    20   ar
     6    20    23    1
     7    23    24   ar
     8    24    25   ar
     9    25    26   ar
    10    26    27    1
    11    26    28   ar
    12    28    29   ar
    13    29    30    1
    14    20    21   ar
    15    21    22   ar
    16    16     1    1
    17     1     2    1
    18     2     3    1
    19     3     4    1
    20     4    31    1
    21    31    32    1
    22    32    33    1
    23     4     8    1
    24     8     9   ar
    25     9    10   ar
    26    10    11   ar
    27    11    12    1
    28    11    13   ar
    29    13    14   ar
    30     4     5    1
    31     5     6    1
    32     6     7    2
    33    22    17   ar
    34     6     1   am
    35    29    23   ar
    36    14     8   ar
    37    33    34    1
    38    33    35    1
