@<TRIPOS>MOLECULE
*****
 22 23 0 0 0
SMALL
GASTEIGER

@<TRIPOS>ATOM
      1 O          61.0942   88.3034   11.6942 O.3     1  UNL1       -0.4706
      2 C          62.1003   89.4045   11.5349 C.ar    1  UNL1        0.1421
      3 C          62.2221   90.1256   10.2253 C.ar    1  UNL1        0.0371
      4 C          63.2282   91.2266   10.0660 C.ar    1  UNL1        0.0061
      5 C          64.1125   91.6067   11.2164 C.ar    1  UNL1        0.0351
      6 C          65.1186   92.7078   11.0572 C.ar    1  UNL1        0.0097
      7 C          66.0029   93.0878   12.2076 C.ar    1  UNL1        0.0824
      8 C          65.8812   92.3668   13.5173 C.ar    1  UNL1        0.3459
      9 O          66.7655   92.7469   14.6678 O.2     1  UNL1       -0.2445
     10 O          64.8751   91.2657   13.6766 O.2     1  UNL1       -0.4209
     11 C          63.9907   90.8857   12.5261 C.ar    1  UNL1        0.1517
     12 C          62.9846   89.7846   12.6853 C.ar    1  UNL1        0.0745
     13 C          61.1088   87.1328   10.7565 C.3     1  UNL1        0.2312
     14 C          62.6004   85.7103    8.5766 C.3     1  UNL1        0.0265
     15 C          62.6815   85.2124    9.9892 C.2     1  UNL1       -0.0402
     16 C          61.9356   85.9236   11.0792 C.2     1  UNL1        0.0125
     17 C          63.5083   84.0032   10.3119 C.3     1  UNL1        0.0474
     18 C          63.4317   83.3845   11.6762 C.2     1  UNL1       -0.0263
     19 C          62.4968   82.2390   11.9289 C.2     1  UNL1       -0.0307
     20 C          62.4202   81.6204   13.2932 C.3     1  UNL1        0.0217
     21 C          62.3825   80.1279   13.4389 C.3     1  UNL1        0.0047
     22 C          62.3812   82.4941   14.5118 C.3     1  UNL1        0.0047
@<TRIPOS>BOND
     1    14    15    1
     2    15    16    2
     3    16    13    1
     4    13     1    1
     5     1     2    1
     6     2     3   ar
     7     3     4   ar
     8     4     5   ar
     9     5     6   ar
    10     6     7   ar
    11     7     8   ar
    12     8     9    2
    13     8    10   ar
    14    10    11   ar
    15    11    12   ar
    16    15    17    1
    17    17    18    1
    18    18    19    2
    19    19    20    1
    20    20    21    1
    21    20    22    1
    22    12     2   ar
    23    11     5   ar
@<TRIPOS>MOLECULE
*****
 22 23 0 0 0
SMALL
GASTEIGER

@<TRIPOS>ATOM
      1 O          60.1637   87.2876    8.4642 O.3     1  UNL1       -0.4706
      2 C          61.1646   86.3702    9.1018 C.ar    1  UNL1        0.1421
      3 C          62.1298   85.6032    8.2474 C.ar    1  UNL1        0.0371
      4 C          63.1307   84.6857    8.8850 C.ar    1  UNL1        0.0061
      5 C          63.1663   84.5352   10.3769 C.ar    1  UNL1        0.0351
      6 C          64.1672   83.6178   11.0145 C.ar    1  UNL1        0.0097
      7 C          64.2028   83.4673   12.5065 C.ar    1  UNL1        0.0824
      8 C          63.2376   84.2342   13.3610 C.ar    1  UNL1        0.3459
      9 O          63.2732   84.0837   14.8530 O.2     1  UNL1       -0.2445
     10 O          62.2367   85.1517   12.7234 O.2     1  UNL1       -0.4209
     11 C          62.2011   85.3022   11.2313 C.ar    1  UNL1        0.1517
     12 C          61.2002   86.2197   10.5937 C.ar    1  UNL1        0.0745
     13 C          60.1306   88.7392    8.8405 C.3     1  UNL1        0.2312
     14 C          60.2222   90.2483   11.4318 C.3     1  UNL1        0.0265
     15 C          61.4379   90.1889   10.5551 C.2     1  UNL1       -0.0402
     16 C          61.3921   89.4344    9.2594 C.2     1  UNL1        0.0125
     17 C          62.6993   90.8841   10.9739 C.3     1  UNL1        0.0474
     18 C          63.2584   90.6601   12.3477 C.2     1  UNL1       -0.0263
     19 C          63.5243   89.2651   12.8309 C.2     1  UNL1       -0.0307
     20 C          64.0834   89.0412   14.2048 C.3     1  UNL1        0.0217
     21 C          64.4190   87.6521   14.6606 C.3     1  UNL1        0.0047
     22 C          64.3069   90.2062   15.1226 C.3     1  UNL1        0.0047
@<TRIPOS>BOND
     1    14    15    1
     2    15    16    2
     3    16    13    1
     4    13     1    1
     5     1     2    1
     6     2     3   ar
     7     3     4   ar
     8     4     5   ar
     9     5     6   ar
    10     6     7   ar
    11     7     8   ar
    12     8     9    2
    13     8    10   ar
    14    10    11   ar
    15    11    12   ar
    16    15    17    1
    17    17    18    1
    18    18    19    2
    19    19    20    1
    20    20    21    1
    21    20    22    1
    22    12     2   ar
    23    11     5   ar
@<TRIPOS>MOLECULE
*****
 22 23 0 0 0
SMALL
GASTEIGER

@<TRIPOS>ATOM
      1 O          61.1619   87.6603    9.4481 O.3     1  UNL1       -0.4706
      2 C          61.9192   86.4115    9.7902 C.ar    1  UNL1        0.1421
      3 C          62.7057   85.6975    8.7311 C.ar    1  UNL1        0.0371
      4 C          63.4629   84.4487    9.0731 C.ar    1  UNL1        0.0061
      5 C          63.4337   83.9139   10.4742 C.ar    1  UNL1        0.0351
      6 C          64.1910   82.6650   10.8162 C.ar    1  UNL1        0.0097
      7 C          64.1618   82.1302   12.2172 C.ar    1  UNL1        0.0824
      8 C          63.3753   82.8441   13.2764 C.ar    1  UNL1        0.3459
      9 O          63.3461   82.3093   14.6775 O.2     1  UNL1       -0.2445
     10 O          62.6180   84.0930   12.9344 O.2     1  UNL1       -0.4209
     11 C          62.6472   84.6278   11.5332 C.ar    1  UNL1        0.1517
     12 C          61.8900   85.8767   11.1912 C.ar    1  UNL1        0.0745
     13 C          61.6847   88.9973    9.8830 C.3     1  UNL1        0.2312
     14 C          63.4976   91.2943   10.5444 C.3     1  UNL1        0.0265
     15 C          63.0699   90.3422   11.6216 C.2     1  UNL1       -0.0402
     16 C          62.1634   89.1937   11.2909 C.2     1  UNL1        0.0125
     17 C          63.5485   90.5386   13.0295 C.3     1  UNL1        0.0474
     18 C          64.7933   91.3324   13.2947 C.2     1  UNL1       -0.0263
     19 C          65.5434   91.1440   14.5799 C.2     1  UNL1       -0.0307
     20 C          66.7883   91.9379   14.8450 C.3     1  UNL1        0.0217
     21 C          66.9206   92.7230   16.1163 C.3     1  UNL1        0.0047
     22 C          67.9007   91.9466   13.8389 C.3     1  UNL1        0.0047
@<TRIPOS>BOND
     1    14    15    1
     2    15    16    2
     3    16    13    1
     4    13     1    1
     5     1     2    1
     6     2     3   ar
     7     3     4   ar
     8     4     5   ar
     9     5     6   ar
    10     6     7   ar
    11     7     8   ar
    12     8     9    2
    13     8    10   ar
    14    10    11   ar
    15    11    12   ar
    16    15    17    1
    17    17    18    1
    18    18    19    2
    19    19    20    1
    20    20    21    1
    21    20    22    1
    22    12     2   ar
    23    11     5   ar
@<TRIPOS>MOLECULE
*****
 22 23 0 0 0
SMALL
GASTEIGER

@<TRIPOS>ATOM
      1 O          60.8625   89.8823    9.9822 O.3     1  UNL1       -0.4706
      2 C          62.0178   90.3529   10.8150 C.ar    1  UNL1        0.1421
      3 C          62.1392   89.9155   12.2446 C.ar    1  UNL1        0.0371
      4 C          63.2946   90.3862   13.0775 C.ar    1  UNL1        0.0061
      5 C          64.3285   91.2943   12.4807 C.ar    1  UNL1        0.0351
      6 C          65.4839   91.7650   13.3135 C.ar    1  UNL1        0.0097
      7 C          66.5178   92.6731   12.7168 C.ar    1  UNL1        0.0824
      8 C          66.3965   93.1106   11.2871 C.ar    1  UNL1        0.3459
      9 O          67.4305   94.0187   10.6903 O.2     1  UNL1       -0.2445
     10 O          65.2411   92.6399   10.4542 O.2     1  UNL1       -0.4209
     11 C          64.2071   91.7317   11.0511 C.ar    1  UNL1        0.1517
     12 C          63.0518   91.2611   10.2182 C.ar    1  UNL1        0.0745
     13 C          60.6810   88.4183    9.7104 C.3     1  UNL1        0.2312
     14 C          60.4677   85.9563    8.0095 C.3     1  UNL1        0.0265
     15 C          61.7726   86.3073    8.6605 C.2     1  UNL1       -0.0402
     16 C          61.8793   87.5383    9.5110 C.2     1  UNL1        0.0125
     17 C          62.9709   85.4274    8.4612 C.3     1  UNL1        0.0474
     18 C          63.3872   84.4715    9.5395 C.2     1  UNL1       -0.0263
     19 C          62.7358   84.5335   10.8893 C.2     1  UNL1       -0.0307
     20 C          63.1522   83.5776   11.9677 C.3     1  UNL1        0.0217
     21 C          62.5768   82.1928   12.0055 C.3     1  UNL1        0.0047
     22 C          64.1439   84.0064   13.0082 C.3     1  UNL1        0.0047
@<TRIPOS>BOND
     1    14    15    1
     2    15    16    2
     3    16    13    1
     4    13     1    1
     5     1     2    1
     6     2     3   ar
     7     3     4   ar
     8     4     5   ar
     9     5     6   ar
    10     6     7   ar
    11     7     8   ar
    12     8     9    2
    13     8    10   ar
    14    10    11   ar
    15    11    12   ar
    16    15    17    1
    17    17    18    1
    18    18    19    2
    19    19    20    1
    20    20    21    1
    21    20    22    1
    22    12     2   ar
    23    11     5   ar
@<TRIPOS>MOLECULE
*****
 22 23 0 0 0
SMALL
GASTEIGER

@<TRIPOS>ATOM
      1 O          63.9709   82.9326   13.9578 O.3     1  UNL1       -0.4706
      2 C          63.6846   83.4470   12.5782 C.ar    1  UNL1        0.1421
      3 C          64.4836   82.9479   11.4109 C.ar    1  UNL1        0.0371
      4 C          64.1973   83.4624   10.0313 C.ar    1  UNL1        0.0061
      5 C          63.1122   84.4759    9.8189 C.ar    1  UNL1        0.0351
      6 C          62.8259   84.9903    8.4392 C.ar    1  UNL1        0.0097
      7 C          61.7408   86.0038    8.2268 C.ar    1  UNL1        0.0824
      8 C          60.9418   86.5029    9.3941 C.ar    1  UNL1        0.3459
      9 O          59.8566   87.5164    9.1817 O.2     1  UNL1       -0.2445
     10 O          61.2280   85.9885   10.7738 O.2     1  UNL1       -0.4209
     11 C          62.3132   84.9749   10.9861 C.ar    1  UNL1        0.1517
     12 C          62.5995   84.4605   12.3658 C.ar    1  UNL1        0.0745
     13 C          64.6208   83.8267   14.9718 C.3     1  UNL1        0.2312
     14 C          63.1465   85.9744   16.4598 C.3     1  UNL1        0.0265
     15 C          64.1336   86.3438   15.3925 C.2     1  UNL1       -0.0402
     16 C          64.8708   85.2699   14.6484 C.2     1  UNL1        0.0125
     17 C          64.3836   87.7870   15.0691 C.3     1  UNL1        0.0474
     18 C          64.0889   88.3096   13.6944 C.2     1  UNL1       -0.0263
     19 C          63.6361   89.7279   13.5122 C.2     1  UNL1       -0.0307
     20 C          63.3414   90.2505   12.1374 C.3     1  UNL1        0.0217
     21 C          62.3164   89.5692   11.2799 C.3     1  UNL1        0.0047
     22 C          64.0716   91.4542   11.6200 C.3     1  UNL1        0.0047
@<TRIPOS>BOND
     1    14    15    1
     2    15    16    2
     3    16    13    1
     4    13     1    1
     5     1     2    1
     6     2     3   ar
     7     3     4   ar
     8     4     5   ar
     9     5     6   ar
    10     6     7   ar
    11     7     8   ar
    12     8     9    2
    13     8    10   ar
    14    10    11   ar
    15    11    12   ar
    16    15    17    1
    17    17    18    1
    18    18    19    2
    19    19    20    1
    20    20    21    1
    21    20    22    1
    22    12     2   ar
    23    11     5   ar
@<TRIPOS>MOLECULE
*****
 22 23 0 0 0
SMALL
GASTEIGER

@<TRIPOS>ATOM
      1 O          63.7547   83.2534   11.1273 O.3     1  UNL1       -0.4706
      2 C          63.0424   84.4460   10.5614 C.ar    1  UNL1        0.1421
      3 C          63.1814   84.7817    9.1061 C.ar    1  UNL1        0.0371
      4 C          62.4691   85.9744    8.5401 C.ar    1  UNL1        0.0061
      5 C          61.6179   86.8313    9.4295 C.ar    1  UNL1        0.0351
      6 C          60.9056   88.0240    8.8636 C.ar    1  UNL1        0.0097
      7 C          60.0544   88.8809    9.7530 C.ar    1  UNL1        0.0824
      8 C          59.9155   88.5453   11.2084 C.ar    1  UNL1        0.3459
      9 O          59.0643   89.4022   12.0978 O.2     1  UNL1       -0.2445
     10 O          60.6277   87.3526   11.7743 O.2     1  UNL1       -0.4209
     11 C          61.4790   86.4956   10.8848 C.ar    1  UNL1        0.1517
     12 C          62.1912   85.3030   11.4507 C.ar    1  UNL1        0.0745
     13 C          63.7734   83.0246   12.6096 C.3     1  UNL1        0.2312
     14 C          62.3109   84.1307   14.9840 C.3     1  UNL1        0.0265
     15 C          63.7177   84.5667   14.6998 C.2     1  UNL1       -0.0402
     16 C          64.4490   84.0136   13.5126 C.2     1  UNL1        0.0125
     17 C          64.3933   85.5556   15.6029 C.3     1  UNL1        0.0474
     18 C          64.2728   87.0255   15.3291 C.2     1  UNL1       -0.0263
     19 C          64.0927   87.5141   13.9224 C.2     1  UNL1       -0.0307
     20 C          63.9722   88.9840   13.6486 C.3     1  UNL1        0.0217
     21 C          64.5613   89.9761   14.6071 C.3     1  UNL1        0.0047
     22 C          63.2626   89.4617   12.4165 C.3     1  UNL1        0.0047
@<TRIPOS>BOND
     1    14    15    1
     2    15    16    2
     3    16    13    1
     4    13     1    1
     5     1     2    1
     6     2     3   ar
     7     3     4   ar
     8     4     5   ar
     9     5     6   ar
    10     6     7   ar
    11     7     8   ar
    12     8     9    2
    13     8    10   ar
    14    10    11   ar
    15    11    12   ar
    16    15    17    1
    17    17    18    1
    18    18    19    2
    19    19    20    1
    20    20    21    1
    21    20    22    1
    22    12     2   ar
    23    11     5   ar
@<TRIPOS>MOLECULE
*****
 22 23 0 0 0
SMALL
GASTEIGER

@<TRIPOS>ATOM
      1 O          61.6885   88.8567   12.0132 O.3     1  UNL1       -0.4706
      2 C          62.8664   89.6008   12.5689 C.ar    1  UNL1        0.1421
      3 C          63.5513   89.1037   13.8073 C.ar    1  UNL1        0.0371
      4 C          64.7292   89.8478   14.3630 C.ar    1  UNL1        0.0061
      5 C          65.2223   91.0890   13.6803 C.ar    1  UNL1        0.0351
      6 C          66.4002   91.8331   14.2360 C.ar    1  UNL1        0.0097
      7 C          66.8933   93.0743   13.5532 C.ar    1  UNL1        0.0824
      8 C          66.2084   93.5715   12.3147 C.ar    1  UNL1        0.3459
      9 O          66.7015   94.8127   11.6320 O.2     1  UNL1       -0.2445
     10 O          65.0305   92.8274   11.7590 O.2     1  UNL1       -0.4209
     11 C          64.5374   91.5861   12.4419 C.ar    1  UNL1        0.1517
     12 C          63.3595   90.8420   11.8862 C.ar    1  UNL1        0.0745
     13 C          61.8794   87.8823   10.8889 C.3     1  UNL1        0.2312
     14 C          62.2113   85.9142    8.6492 C.3     1  UNL1        0.0265
     15 C          62.6211   85.5405   10.0429 C.2     1  UNL1       -0.0402
     16 C          62.4551   86.5246   11.1628 C.2     1  UNL1        0.0125
     17 C          63.1969   84.1827   10.3168 C.3     1  UNL1        0.0474
     18 C          63.2229   83.6478   11.7178 C.2     1  UNL1       -0.0263
     19 C          62.4199   82.4312   12.0712 C.2     1  UNL1       -0.0307
     20 C          62.4460   81.8962   13.4724 C.3     1  UNL1        0.0217
     21 C          62.6287   80.4266   13.7109 C.3     1  UNL1        0.0047
     22 C          62.2893   82.8309   14.6351 C.3     1  UNL1        0.0047
@<TRIPOS>BOND
     1    14    15    1
     2    15    16    2
     3    16    13    1
     4    13     1    1
     5     1     2    1
     6     2     3   ar
     7     3     4   ar
     8     4     5   ar
     9     5     6   ar
    10     6     7   ar
    11     7     8   ar
    12     8     9    2
    13     8    10   ar
    14    10    11   ar
    15    11    12   ar
    16    15    17    1
    17    17    18    1
    18    18    19    2
    19    19    20    1
    20    20    21    1
    21    20    22    1
    22    12     2   ar
    23    11     5   ar
@<TRIPOS>MOLECULE
*****
 22 23 0 0 0
SMALL
GASTEIGER

@<TRIPOS>ATOM
      1 O          60.2725   89.6517    9.7648 O.3     1  UNL1       -0.4706
      2 C          61.4033   90.0701   10.6571 C.ar    1  UNL1        0.1421
      3 C          62.5763   90.8093   10.0848 C.ar    1  UNL1        0.0371
      4 C          63.7072   91.2276   10.9771 C.ar    1  UNL1        0.0061
      5 C          63.6650   90.9068   12.4417 C.ar    1  UNL1        0.0351
      6 C          64.7958   91.3252   13.3340 C.ar    1  UNL1        0.0097
      7 C          64.7536   91.0044   14.7987 C.ar    1  UNL1        0.0824
      8 C          63.5805   90.2652   15.3711 C.ar    1  UNL1        0.3459
      9 O          63.5383   89.9444   16.8358 O.2     1  UNL1       -0.2445
     10 O          62.4497   89.8468   14.4788 O.2     1  UNL1       -0.4209
     11 C          62.4919   90.1677   13.0141 C.ar    1  UNL1        0.1517
     12 C          61.3611   89.7493   12.1218 C.ar    1  UNL1        0.0745
     13 C          60.3441   88.3495    9.0238 C.3     1  UNL1        0.2312
     14 C          60.4842   85.7411    7.5486 C.3     1  UNL1        0.0265
     15 C          61.6608   86.2135    8.3502 C.2     1  UNL1       -0.0402
     16 C          61.5907   87.5178    9.0878 C.2     1  UNL1        0.0125
     17 C          62.9074   85.3817    8.4141 C.3     1  UNL1        0.0474
     18 C          63.2248   84.6002    9.6545 C.2     1  UNL1       -0.0263
     19 C          62.4576   84.8548   10.9181 C.2     1  UNL1       -0.0307
     20 C          62.7751   84.0732   12.1585 C.3     1  UNL1        0.0217
     21 C          62.4981   82.5999   12.2081 C.3     1  UNL1        0.0047
     22 C          63.3695   84.7651   13.3493 C.3     1  UNL1        0.0047
@<TRIPOS>BOND
     1    14    15    1
     2    15    16    2
     3    16    13    1
     4    13     1    1
     5     1     2    1
     6     2     3   ar
     7     3     4   ar
     8     4     5   ar
     9     5     6   ar
    10     6     7   ar
    11     7     8   ar
    12     8     9    2
    13     8    10   ar
    14    10    11   ar
    15    11    12   ar
    16    15    17    1
    17    17    18    1
    18    18    19    2
    19    19    20    1
    20    20    21    1
    21    20    22    1
    22    12     2   ar
    23    11     5   ar
@<TRIPOS>MOLECULE
*****
 22 23 0 0 0
SMALL
GASTEIGER

@<TRIPOS>ATOM
      1 O          62.9792   85.2070    8.6605 O.3     1  UNL1       -0.4706
      2 C          63.2036   84.5387    9.9845 C.ar    1  UNL1        0.1421
      3 C          63.9801   83.2573   10.0558 C.ar    1  UNL1        0.0371
      4 C          64.2045   82.5890   11.3798 C.ar    1  UNL1        0.0061
      5 C          63.6524   83.2020   12.6325 C.ar    1  UNL1        0.0351
      6 C          63.8768   82.5337   13.9565 C.ar    1  UNL1        0.0097
      7 C          63.3248   83.1467   15.2092 C.ar    1  UNL1        0.0824
      8 C          62.5483   84.4281   15.1380 C.ar    1  UNL1        0.3459
      9 O          61.9962   85.0412   16.3908 O.2     1  UNL1       -0.2445
     10 O          62.3239   85.0965   13.8140 O.2     1  UNL1       -0.4209
     11 C          62.8760   84.4834   12.5613 C.ar    1  UNL1        0.1517
     12 C          62.6515   85.1517   11.2373 C.ar    1  UNL1        0.0745
     13 C          61.7594   86.0529    8.4446 C.3     1  UNL1        0.2312
     14 C          59.4562   87.8724    7.8244 C.3     1  UNL1        0.0265
     15 C          60.4438   88.2488    8.8886 C.2     1  UNL1       -0.0402
     16 C          61.5955   87.3391    9.1988 C.2     1  UNL1        0.0125
     17 C          60.2799   89.5351    9.6428 C.3     1  UNL1        0.0474
     18 C          61.3119   89.9515   10.6485 C.2     1  UNL1       -0.0263
     19 C          62.5633   90.6441   10.1963 C.2     1  UNL1       -0.0307
     20 C          63.5953   91.0606   11.2021 C.3     1  UNL1        0.0217
     21 C          64.6020   92.1156   10.8507 C.3     1  UNL1        0.0047
     22 C          63.6205   90.4221   12.5591 C.3     1  UNL1        0.0047
@<TRIPOS>BOND
     1    14    15    1
     2    15    16    2
     3    16    13    1
     4    13     1    1
     5     1     2    1
     6     2     3   ar
     7     3     4   ar
     8     4     5   ar
     9     5     6   ar
    10     6     7   ar
    11     7     8   ar
    12     8     9    2
    13     8    10   ar
    14    10    11   ar
    15    11    12   ar
    16    15    17    1
    17    17    18    1
    18    18    19    2
    19    19    20    1
    20    20    21    1
    21    20    22    1
    22    12     2   ar
    23    11     5   ar
