@<TRIPOS>MOLECULE
*****
 36 41 0 0 0
SMALL
GASTEIGER

@<TRIPOS>ATOM
      1 N          64.0999   90.8322   12.6159 N.3     1  UNL1       -0.1583
      2 C          65.2326   91.8154   12.6354 C.3     1  UNL1        0.0795
      3 C          65.4766   92.7021   11.4504 C.3     1  UNL1        0.0178
      4 C          64.5878   92.6057   10.2459 C.3     1  UNL1        0.0029
      5 C          63.4551   91.6226   10.2264 C.3     1  UNL1        0.0178
      6 C          63.2111   90.7358   11.4114 C.3     1  UNL1        0.0799
      7 O          64.4129   88.7675   13.4476 O.2     1  UNL1       -0.1528
      8 S          63.8560   89.9455   13.8009 S.O2    1  UNL1        0.0632
      9 O          63.1574   91.0733   14.5010 O.2     1  UNL1       -0.1528
     10 C          63.6120   89.0587   14.9859 C.ar    1  UNL1        0.1222
     11 C          63.9730   87.6043   14.9212 C.ar    1  UNL1        0.0208
     12 C          63.7292   86.7175   16.1061 C.ar    1  UNL1        0.0128
     13 C          63.1243   87.2852   17.3558 C.ar    1  UNL1        0.0578
     14 CL         62.8804   86.3984   18.5408 Cl      1  UNL1       -0.0822
     15 C          62.7633   88.7397   17.4206 C.ar    1  UNL1        0.0128
     16 C          63.0072   89.6264   16.2356 C.ar    1  UNL1        0.0208
     17 C          66.1214   91.9118   13.8399 C.3     1  UNL1        0.0164
     18 C          66.3877   92.4383   15.2189 C.3     1  UNL1        0.0014
     19 C          67.3945   91.5524   14.5470 C.3     1  UNL1        0.0014
     20 C          62.0784   89.7527   11.3919 C.3     1  UNL1        0.0240
     21 C          60.7273   89.1537   11.6483 C.3     1  UNL1        0.0019
     22 C          61.0561   90.5175   12.1794 C.3     1  UNL1        0.0019
     23 C          62.7073   88.6465   10.5977 C.3     1  UNL1        0.0894
     24 C          62.5398   87.2211   11.0339 C.ar    1  UNL1        0.2364
     25 N          63.0265   86.6310   12.3242 N.ar    1  UNL1       -0.1934
     26 C          62.6438   85.1807   12.3441 C.ar    1  UNL1        0.1966
     27 N          61.9205   84.8746   11.0662 N.ar    1  UNL1       -0.0592
     28 O          61.8563   86.1356   10.2565 O.2     1  UNL1       -0.3373
     29 C          62.9334   84.2075   13.4483 C.3     1  UNL1        0.1424
     30 N          62.6433   82.7483   13.2570 N.3     1  UNL1       -0.2641
     31 C          61.8572   81.8760   14.1903 C.3     1  UNL1        0.0751
     32 C          61.8163   80.4938   13.6091 C.3     1  UNL1        0.0480
     33 C          62.5773   80.5119   12.3165 C.3     1  UNL1        0.1278
     34 O          62.7898   79.3420   11.4021 O.3     1  UNL1       -0.3830
     35 C          63.0884   81.9052   12.0990 C.3     1  UNL1        0.1020
     36 H          63.3149   79.6217   10.6360 H       1  UNL1        0.2104
@<TRIPOS>BOND
     1     7     8    2
     2     8     9    2
     3     8    10    1
     4    10    11   ar
     5    11    12   ar
     6    12    13   ar
     7    13    14    1
     8    13    15   ar
     9    15    16   ar
    10     8     1    1
    11     1     2    1
    12     2    17    1
    13    17    18    1
    14    18    19    1
    15     2     3    1
    16     3     4    1
    17     4     5    1
    18     5     6    1
    19     6    20    1
    20    20    23    1
    21    23    24    1
    22    24    25   ar
    23    25    26   ar
    24    26    29    1
    25    29    30    1
    26    30    31    1
    27    31    32    1
    28    32    33    1
    29    33    34    1
    30    33    35    1
    31    26    27   ar
    32    27    28   ar
    33    20    21    1
    34    21    22    1
    35    16    10   ar
    36     6     1    1
    37    22    20    1
    38    19    17    1
    39    28    24   ar
    40    35    30    1
    41    34    36    1
@<TRIPOS>MOLECULE
*****
 36 41 0 0 0
SMALL
GASTEIGER

@<TRIPOS>ATOM
      1 N          64.3503   91.0905   12.6821 N.3     1  UNL1       -0.1583
      2 C          65.5289   92.0128   12.7839 C.3     1  UNL1        0.0795
      3 C          65.8416   92.9568   11.6610 C.3     1  UNL1        0.0178
      4 C          64.9758   92.9786   10.4363 C.3     1  UNL1        0.0029
      5 C          63.7973   92.0564   10.3345 C.3     1  UNL1        0.0178
      6 C          63.4845   91.1122   11.4574 C.3     1  UNL1        0.0799
      7 O          64.4168   88.9399   13.3327 O.2     1  UNL1       -0.1528
      8 S          64.0376   90.1464   13.8050 S.O2    1  UNL1        0.0632
      9 O          63.5253   91.2925   14.6259 O.2     1  UNL1       -0.1528
     10 C          63.7248   89.2023   14.9280 C.ar    1  UNL1        0.1222
     11 C          63.1165   89.7215   16.1969 C.ar    1  UNL1        0.0208
     12 C          62.8038   88.7775   17.3198 C.ar    1  UNL1        0.0128
     13 C          63.0994   87.3142   17.1738 C.ar    1  UNL1        0.0578
     14 CL         62.7867   86.3701   18.2967 Cl      1  UNL1       -0.0822
     15 C          63.7078   86.7950   15.9048 C.ar    1  UNL1        0.0128
     16 C          64.0205   87.7390   14.7819 C.ar    1  UNL1        0.0208
     17 C          66.3947   91.9910   14.0086 C.3     1  UNL1        0.0164
     18 C          66.6587   92.4227   15.4207 C.3     1  UNL1        0.0014
     19 C          67.6303   91.5217   14.7177 C.3     1  UNL1        0.0014
     20 C          62.3059   90.1900   11.3556 C.3     1  UNL1        0.0240
     21 C          60.9508   89.6007   11.6134 C.3     1  UNL1        0.0019
     22 C          61.3883   90.8286   12.3558 C.3     1  UNL1        0.0019
     23 C          62.8142   89.2311   10.3202 C.3     1  UNL1        0.0894
     24 C          62.3529   87.8038   10.3291 C.ar    1  UNL1        0.2364
     25 N          62.5893   86.8076   11.4253 N.ar    1  UNL1       -0.1934
     26 C          61.9567   85.5102   11.0169 C.ar    1  UNL1        0.1966
     27 N          61.3294   85.7047    9.6684 N.ar    1  UNL1       -0.0592
     28 O          61.5743   87.1221    9.2433 O.2     1  UNL1       -0.3373
     29 C          61.9523   84.2412   11.8168 C.3     1  UNL1        0.1424
     30 N          62.9639   84.0374   12.9054 N.3     1  UNL1       -0.2641
     31 C          62.7335   83.3134   14.1987 C.3     1  UNL1        0.0751
     32 C          64.0106   83.3503   14.9846 C.3     1  UNL1        0.0480
     33 C          65.0303   84.0971   14.1768 C.3     1  UNL1        0.1278
     34 O          66.4481   84.3712   14.5828 O.3     1  UNL1       -0.3830
     35 C          64.3834   84.5218   12.8918 C.3     1  UNL1        0.1020
     36 H          66.8942   84.8716   13.8818 H       1  UNL1        0.2104
@<TRIPOS>BOND
     1     7     8    2
     2     8     9    2
     3     8    10    1
     4    10    11   ar
     5    11    12   ar
     6    12    13   ar
     7    13    14    1
     8    13    15   ar
     9    15    16   ar
    10     8     1    1
    11     1     2    1
    12     2    17    1
    13    17    18    1
    14    18    19    1
    15     2     3    1
    16     3     4    1
    17     4     5    1
    18     5     6    1
    19     6    20    1
    20    20    23    1
    21    23    24    1
    22    24    25   ar
    23    25    26   ar
    24    26    29    1
    25    29    30    1
    26    30    31    1
    27    31    32    1
    28    32    33    1
    29    33    34    1
    30    33    35    1
    31    26    27   ar
    32    27    28   ar
    33    20    21    1
    34    21    22    1
    35    16    10   ar
    36     6     1    1
    37    22    20    1
    38    19    17    1
    39    28    24   ar
    40    35    30    1
    41    34    36    1
@<TRIPOS>MOLECULE
*****
 36 41 0 0 0
SMALL
GASTEIGER

@<TRIPOS>ATOM
      1 N          63.1942   84.7387   11.5604 N.3     1  UNL1       -0.1583
      2 C          63.6061   84.0966   10.2689 C.3     1  UNL1        0.0795
      3 C          64.3709   82.8063   10.2833 C.3     1  UNL1        0.0178
      4 C          64.7239   82.1581   11.5891 C.3     1  UNL1        0.0029
      5 C          64.3120   82.8002   12.8806 C.3     1  UNL1        0.0178
      6 C          63.5472   84.0906   12.8663 C.3     1  UNL1        0.0799
      7 O          63.3631   86.9652   11.8188 O.2     1  UNL1       -0.1528
      8 S          62.4294   86.0290   11.5461 S.O2    1  UNL1        0.0632
      9 O          61.1696   85.2787   11.2302 O.2     1  UNL1       -0.1528
     10 C          61.6646   87.3194   11.5317 C.ar    1  UNL1        0.1222
     11 C          60.2244   87.3329   11.1129 C.ar    1  UNL1        0.0208
     12 C          59.4596   88.6232   11.0985 C.ar    1  UNL1        0.0128
     13 C          60.1350   89.8999   11.5030 C.ar    1  UNL1        0.0578
     14 CL         59.3702   91.1903   11.4886 Cl      1  UNL1       -0.0822
     15 C          61.5753   89.8863   11.9218 C.ar    1  UNL1        0.0128
     16 C          62.3401   88.5961   11.9362 C.ar    1  UNL1        0.0208
     17 C          63.2532   84.7448    8.9630 C.3     1  UNL1        0.0164
     18 C          62.8842   84.6300    7.5137 C.3     1  UNL1        0.0014
     19 C          63.0110   85.9821    8.1506 C.3     1  UNL1        0.0014
     20 C          63.1353   84.7326   14.1578 C.3     1  UNL1        0.0240
     21 C          62.3305   85.0386   15.3861 C.3     1  UNL1        0.0019
     22 C          61.8608   83.9878   14.4242 C.3     1  UNL1        0.0019
     23 C          64.2667   85.7004   14.3400 C.3     1  UNL1        0.0894
     24 C          64.0152   87.0383   14.9701 C.ar    1  UNL1        0.2364
     25 N          64.4860   88.3623   14.4456 N.ar    1  UNL1       -0.1934
     26 C          64.0105   89.4293   15.3867 C.ar    1  UNL1        0.1966
     27 N          63.2458   88.7646   16.4927 N.ar    1  UNL1       -0.0592
     28 O          63.2487   87.2869   16.2352 O.2     1  UNL1       -0.3373
     29 C          64.2566   90.9024   15.2463 C.3     1  UNL1        0.1424
     30 N          65.4150   91.3947   14.4305 N.3     1  UNL1       -0.2641
     31 C          65.3350   91.9955   13.0584 C.3     1  UNL1        0.0751
     32 C          66.7274   92.3449   12.6234 C.3     1  UNL1        0.0480
     33 C          67.6679   91.9600   13.7266 C.3     1  UNL1        0.1278
     34 O          69.1580   92.1321   13.7151 O.3     1  UNL1       -0.3830
     35 C          66.8569   91.3727   14.8435 C.3     1  UNL1        0.1020
     36 H          69.5279   91.8029   14.5492 H       1  UNL1        0.2104
@<TRIPOS>BOND
     1     7     8    2
     2     8     9    2
     3     8    10    1
     4    10    11   ar
     5    11    12   ar
     6    12    13   ar
     7    13    14    1
     8    13    15   ar
     9    15    16   ar
    10     8     1    1
    11     1     2    1
    12     2    17    1
    13    17    18    1
    14    18    19    1
    15     2     3    1
    16     3     4    1
    17     4     5    1
    18     5     6    1
    19     6    20    1
    20    20    23    1
    21    23    24    1
    22    24    25   ar
    23    25    26   ar
    24    26    29    1
    25    29    30    1
    26    30    31    1
    27    31    32    1
    28    32    33    1
    29    33    34    1
    30    33    35    1
    31    26    27   ar
    32    27    28   ar
    33    20    21    1
    34    21    22    1
    35    16    10   ar
    36     6     1    1
    37    22    20    1
    38    19    17    1
    39    28    24   ar
    40    35    30    1
    41    34    36    1
@<TRIPOS>MOLECULE
*****
 36 41 0 0 0
SMALL
GASTEIGER

@<TRIPOS>ATOM
      1 N          60.9476   87.4548    9.2018 N.3     1  UNL1       -0.1583
      2 C          60.6483   87.1122    7.7724 C.3     1  UNL1        0.0795
      3 C          59.9140   88.0907    6.9045 C.3     1  UNL1        0.0178
      4 C          59.4791   89.4119    7.4659 C.3     1  UNL1        0.0029
      5 C          59.7784   89.7546    8.8952 C.3     1  UNL1        0.0178
      6 C          60.5126   88.7761    9.7632 C.3     1  UNL1        0.0799
      7 O          60.7187   85.9507   10.8564 O.2     1  UNL1       -0.1528
      8 S          61.6818   86.4763   10.0697 S.O2    1  UNL1        0.0632
      9 O          62.9677   86.8341    9.3854 O.2     1  UNL1       -0.1528
     10 C          62.4160   85.4977   10.9377 C.ar    1  UNL1        0.1222
     11 C          63.1828   84.3697   10.3135 C.ar    1  UNL1        0.0208
     12 C          63.9170   83.3911   11.1814 C.ar    1  UNL1        0.0128
     13 C          63.8845   83.5406   12.6735 C.ar    1  UNL1        0.0578
     14 CL         64.6187   82.5620   13.5415 Cl      1  UNL1       -0.0822
     15 C          63.1177   84.6686   13.2978 C.ar    1  UNL1        0.0128
     16 C          62.3835   85.6472   12.4299 C.ar    1  UNL1        0.0208
     17 C          61.0832   85.7909    7.2111 C.3     1  UNL1        0.0164
     18 C          60.7430   84.4613    6.6059 C.3     1  UNL1        0.0014
     19 C          62.1768   84.8321    6.8440 C.3     1  UNL1        0.0014
     20 C          60.8119   89.1188   11.1925 C.3     1  UNL1        0.0240
     21 C          60.6063   89.3395   12.6618 C.3     1  UNL1        0.0019
     22 C          59.4621   88.8866   11.8041 C.3     1  UNL1        0.0019
     23 C          62.2656   89.4700   11.0773 C.3     1  UNL1        0.0894
     24 C          63.1021   89.6165   12.3137 C.ar    1  UNL1        0.2364
     25 N          63.4415   90.9058   13.0010 N.ar    1  UNL1       -0.1934
     26 C          64.2952   90.5855   14.1920 C.ar    1  UNL1        0.1966
     27 N          64.4835   89.0982   14.2408 N.ar    1  UNL1       -0.0592
     28 O          63.7462   88.4993   13.0799 O.2     1  UNL1       -0.3373
     29 C          64.8613   91.5782   15.1637 C.3     1  UNL1        0.1424
     30 N          66.3155   91.9412   15.1034 N.3     1  UNL1       -0.2641
     31 C          67.0745   92.7159   16.1396 C.3     1  UNL1        0.0751
     32 C          68.4941   92.8468   15.6730 C.3     1  UNL1        0.0480
     33 C          68.6123   92.1530   14.3483 C.3     1  UNL1        0.1278
     34 O          69.8583   92.0389   13.5210 O.3     1  UNL1       -0.3830
     35 C          67.2659   91.5933   13.9963 C.3     1  UNL1        0.1020
     36 H          69.6640   91.5420   12.7109 H       1  UNL1        0.2104
@<TRIPOS>BOND
     1     7     8    2
     2     8     9    2
     3     8    10    1
     4    10    11   ar
     5    11    12   ar
     6    12    13   ar
     7    13    14    1
     8    13    15   ar
     9    15    16   ar
    10     8     1    1
    11     1     2    1
    12     2    17    1
    13    17    18    1
    14    18    19    1
    15     2     3    1
    16     3     4    1
    17     4     5    1
    18     5     6    1
    19     6    20    1
    20    20    23    1
    21    23    24    1
    22    24    25   ar
    23    25    26   ar
    24    26    29    1
    25    29    30    1
    26    30    31    1
    27    31    32    1
    28    32    33    1
    29    33    34    1
    30    33    35    1
    31    26    27   ar
    32    27    28   ar
    33    20    21    1
    34    21    22    1
    35    16    10   ar
    36     6     1    1
    37    22    20    1
    38    19    17    1
    39    28    24   ar
    40    35    30    1
    41    34    36    1
@<TRIPOS>MOLECULE
*****
 36 41 0 0 0
SMALL
GASTEIGER

@<TRIPOS>ATOM
      1 N          60.9726   87.4588    8.9882 N.3     1  UNL1       -0.1583
      2 C          60.5318   87.0773    7.6061 C.3     1  UNL1        0.0795
      3 C          59.7667   88.0564    6.7659 C.3     1  UNL1        0.0178
      4 C          59.4424   89.4170    7.3079 C.3     1  UNL1        0.0029
      5 C          59.8832   89.7985    8.6899 C.3     1  UNL1        0.0178
      6 C          60.6483   88.8193    9.5301 C.3     1  UNL1        0.0799
      7 O          60.8290   86.0370   10.7234 O.2     1  UNL1       -0.1528
      8 S          61.7377   86.4796    9.8284 S.O2    1  UNL1        0.0632
      9 O          62.9691   86.7423    9.0131 O.2     1  UNL1       -0.1528
     10 C          62.5028   85.5004   10.6686 C.ar    1  UNL1        0.1222
     11 C          62.5449   85.6634   12.1591 C.ar    1  UNL1        0.0208
     12 C          63.3099   84.6843   12.9993 C.ar    1  UNL1        0.0128
     13 C          64.0329   83.5422   12.3490 C.ar    1  UNL1        0.0578
     14 CL         64.7980   82.5631   13.1892 Cl      1  UNL1       -0.0822
     15 C          63.9909   83.3793   10.8585 C.ar    1  UNL1        0.0128
     16 C          63.2258   84.3584   10.0183 C.ar    1  UNL1        0.0208
     17 C          60.8561   85.7168    7.0642 C.3     1  UNL1        0.0164
     18 C          61.8686   84.6999    6.6275 C.3     1  UNL1        0.0014
     19 C          60.4052   84.3771    6.5622 C.3     1  UNL1        0.0014
     20 C          61.0891   89.2008   10.9122 C.3     1  UNL1        0.0240
     21 C          61.0205   89.5124   12.3779 C.3     1  UNL1        0.0019
     22 C          59.7753   89.1322   11.6328 C.3     1  UNL1        0.0019
     23 C          62.5559   89.4018   10.6716 C.3     1  UNL1        0.0894
     24 C          63.3456   90.3089   11.5680 C.ar    1  UNL1        0.2364
     25 N          64.2299   91.4361   11.1237 N.ar    1  UNL1       -0.1934
     26 C          64.8204   92.0720   12.3472 C.ar    1  UNL1        0.1966
     27 N          64.3011   91.3377   13.5476 N.ar    1  UNL1       -0.0592
     28 O          63.3897   90.2482   13.0661 O.2     1  UNL1       -0.3373
     29 C          65.7646   93.2375   12.3667 C.3     1  UNL1        0.1424
     30 N          66.5791   93.5632   11.1500 N.3     1  UNL1       -0.2641
     31 C          67.4421   92.6046   10.3843 C.3     1  UNL1        0.0751
     32 C          68.0701   93.3535    9.2464 C.3     1  UNL1        0.0480
     33 C          67.5953   94.7750    9.3090 C.3     1  UNL1        0.1278
     34 O          67.9752   95.8739    8.3614 O.3     1  UNL1       -0.3830
     35 C          66.6738   94.9046   10.4854 C.3     1  UNL1        0.1020
     36 H          67.5310   96.6953    8.6240 H       1  UNL1        0.2104
@<TRIPOS>BOND
     1     7     8    2
     2     8     9    2
     3     8    10    1
     4    10    11   ar
     5    11    12   ar
     6    12    13   ar
     7    13    14    1
     8    13    15   ar
     9    15    16   ar
    10     8     1    1
    11     1     2    1
    12     2    17    1
    13    17    18    1
    14    18    19    1
    15     2     3    1
    16     3     4    1
    17     4     5    1
    18     5     6    1
    19     6    20    1
    20    20    23    1
    21    23    24    1
    22    24    25   ar
    23    25    26   ar
    24    26    29    1
    25    29    30    1
    26    30    31    1
    27    31    32    1
    28    32    33    1
    29    33    34    1
    30    33    35    1
    31    26    27   ar
    32    27    28   ar
    33    20    21    1
    34    21    22    1
    35    16    10   ar
    36     6     1    1
    37    22    20    1
    38    19    17    1
    39    28    24   ar
    40    35    30    1
    41    34    36    1
@<TRIPOS>MOLECULE
*****
 36 41 0 0 0
SMALL
GASTEIGER

@<TRIPOS>ATOM
      1 N          64.4339   91.1974   12.6563 N.3     1  UNL1       -0.1583
      2 C          64.2262   91.7507   11.2775 C.3     1  UNL1        0.0795
      3 C          63.0639   91.2870   10.4506 C.3     1  UNL1        0.0178
      4 C          62.1092   90.2701   11.0023 C.3     1  UNL1        0.0029
      5 C          62.3168   89.7168   12.3809 C.3     1  UNL1        0.0178
      6 C          63.4792   90.1805   13.2080 C.3     1  UNL1        0.0799
      7 O          66.6730   91.1504   12.8488 O.2     1  UNL1       -0.1528
      8 S          65.5963   91.6611   13.4832 S.O2    1  UNL1        0.0632
      9 O          64.6532   92.3616   14.4160 O.2     1  UNL1       -0.1528
     10 C          66.7587   92.1248   14.3102 C.ar    1  UNL1        0.1222
     11 C          66.5241   92.7171   15.6682 C.ar    1  UNL1        0.0208
     12 C          67.6865   93.1807   16.4952 C.ar    1  UNL1        0.0128
     13 C          69.0834   93.0521   15.9641 C.ar    1  UNL1        0.0578
     14 CL         70.2458   93.5158   16.7911 Cl      1  UNL1       -0.0822
     15 C          69.3179   92.4599   14.6061 C.ar    1  UNL1        0.0128
     16 C          68.1556   91.9962   13.7792 C.ar    1  UNL1        0.0208
     17 C          65.1809   92.7676   10.7258 C.3     1  UNL1        0.0164
     18 C          66.4600   93.0973   10.0151 C.3     1  UNL1        0.0014
     19 C          65.5554   94.1993   10.4810 C.3     1  UNL1        0.0014
     20 C          63.6868   89.6272   14.5866 C.3     1  UNL1        0.0240
     21 C          63.5463   89.4472   16.0691 C.3     1  UNL1        0.0019
     22 C          62.7563   90.5100   15.3644 C.3     1  UNL1        0.0019
     23 C          64.6895   88.5524   14.2877 C.3     1  UNL1        0.0894
     24 C          64.2341   87.1379   14.0830 C.ar    1  UNL1        0.2364
     25 N          64.6354   85.9538   14.9118 N.ar    1  UNL1       -0.1934
     26 C          63.9468   84.7433   14.3546 C.ar    1  UNL1        0.1966
     27 N          63.1200   85.1792   13.1815 N.ar    1  UNL1       -0.0592
     28 O          63.2976   86.6591   13.0136 O.2     1  UNL1       -0.3373
     29 C          64.0644   83.3426   14.8786 C.3     1  UNL1        0.1424
     30 N          63.2555   82.2406   14.2614 N.3     1  UNL1       -0.2641
     31 C          61.8318   81.9016   14.5901 C.3     1  UNL1        0.0751
     32 C          61.4244   80.7355   13.7390 C.3     1  UNL1        0.0480
     33 C          62.5965   80.3540   12.8841 C.3     1  UNL1        0.1278
     34 O          62.6308   79.2381   11.8823 O.3     1  UNL1       -0.3830
     35 C          63.7281   81.2841   13.2070 C.3     1  UNL1        0.1020
     36 H          63.5063   79.2043   11.4659 H       1  UNL1        0.2104
@<TRIPOS>BOND
     1     7     8    2
     2     8     9    2
     3     8    10    1
     4    10    11   ar
     5    11    12   ar
     6    12    13   ar
     7    13    14    1
     8    13    15   ar
     9    15    16   ar
    10     8     1    1
    11     1     2    1
    12     2    17    1
    13    17    18    1
    14    18    19    1
    15     2     3    1
    16     3     4    1
    17     4     5    1
    18     5     6    1
    19     6    20    1
    20    20    23    1
    21    23    24    1
    22    24    25   ar
    23    25    26   ar
    24    26    29    1
    25    29    30    1
    26    30    31    1
    27    31    32    1
    28    32    33    1
    29    33    34    1
    30    33    35    1
    31    26    27   ar
    32    27    28   ar
    33    20    21    1
    34    21    22    1
    35    16    10   ar
    36     6     1    1
    37    22    20    1
    38    19    17    1
    39    28    24   ar
    40    35    30    1
    41    34    36    1
@<TRIPOS>MOLECULE
*****
 36 41 0 0 0
SMALL
GASTEIGER

@<TRIPOS>ATOM
      1 N          64.9599   91.5741   13.6195 N.3     1  UNL1       -0.1583
      2 C          65.8889   92.6165   13.0710 C.3     1  UNL1        0.0795
      3 C          66.8349   93.3347   13.9870 C.3     1  UNL1        0.0178
      4 C          66.8520   93.0108   15.4515 C.3     1  UNL1        0.0029
      5 C          65.9231   91.9685   16.0000 C.3     1  UNL1        0.0178
      6 C          64.9770   91.2502   15.0840 C.3     1  UNL1        0.0799
      7 O          64.6699   89.7207   12.3812 O.2     1  UNL1       -0.1528
      8 S          64.0139   90.8559   12.7034 S.O2    1  UNL1        0.0632
      9 O          63.0269   91.9766   12.8440 O.2     1  UNL1       -0.1528
     10 C          63.0679   90.1375   11.7874 C.ar    1  UNL1        0.1222
     11 C          62.3086   90.9021   10.7439 C.ar    1  UNL1        0.0208
     12 C          61.3626   90.1838    9.8279 C.ar    1  UNL1        0.0128
     13 C          61.1760   88.7010    9.9553 C.ar    1  UNL1        0.0578
     14 CL         60.2300   87.9826    9.0392 Cl      1  UNL1       -0.0822
     15 C          61.9353   87.9364   10.9988 C.ar    1  UNL1        0.0128
     16 C          62.8813   88.6547   11.9148 C.ar    1  UNL1        0.0208
     17 C          65.8717   92.9404   11.6065 C.3     1  UNL1        0.0164
     18 C          66.4448   92.7678   10.2311 C.3     1  UNL1        0.0014
     19 C          65.2690   93.6741   10.4454 C.3     1  UNL1        0.0014
     20 C          64.0482   90.2079   15.6324 C.3     1  UNL1        0.0240
     21 C          62.9225   89.5910   16.4085 C.3     1  UNL1        0.0019
     22 C          63.1590   91.0706   16.4781 C.3     1  UNL1        0.0019
     23 C          64.6147   88.9833   14.9773 C.3     1  UNL1        0.0894
     24 C          64.1251   87.6234   15.3786 C.ar    1  UNL1        0.2364
     25 N          64.5647   86.3177   14.7856 N.ar    1  UNL1       -0.1934
     26 C          63.8211   85.2178   15.4838 C.ar    1  UNL1        0.1966
     27 N          62.9220   85.8439   16.5082 N.ar    1  UNL1       -0.0592
     28 O          63.1098   87.3306   16.4432 O.2     1  UNL1       -0.3373
     29 C          63.9535   83.7496   15.2062 C.3     1  UNL1        0.1424
     30 N          63.7268   83.2252   13.8193 N.3     1  UNL1       -0.2641
     31 C          62.5508   82.4123   13.3654 C.3     1  UNL1        0.0751
     32 C          62.7334   82.1062   11.9083 C.3     1  UNL1        0.0480
     33 C          64.0223   82.7301   11.4618 C.3     1  UNL1        0.1278
     34 O          64.5965   82.6725   10.0772 O.3     1  UNL1       -0.3830
     35 C          64.6363   83.4217   12.6428 C.3     1  UNL1        0.1020
     36 H          65.4373   83.1558   10.0555 H       1  UNL1        0.2104
@<TRIPOS>BOND
     1     7     8    2
     2     8     9    2
     3     8    10    1
     4    10    11   ar
     5    11    12   ar
     6    12    13   ar
     7    13    14    1
     8    13    15   ar
     9    15    16   ar
    10     8     1    1
    11     1     2    1
    12     2    17    1
    13    17    18    1
    14    18    19    1
    15     2     3    1
    16     3     4    1
    17     4     5    1
    18     5     6    1
    19     6    20    1
    20    20    23    1
    21    23    24    1
    22    24    25   ar
    23    25    26   ar
    24    26    29    1
    25    29    30    1
    26    30    31    1
    27    31    32    1
    28    32    33    1
    29    33    34    1
    30    33    35    1
    31    26    27   ar
    32    27    28   ar
    33    20    21    1
    34    21    22    1
    35    16    10   ar
    36     6     1    1
    37    22    20    1
    38    19    17    1
    39    28    24   ar
    40    35    30    1
    41    34    36    1
@<TRIPOS>MOLECULE
*****
 36 41 0 0 0
SMALL
GASTEIGER

@<TRIPOS>ATOM
      1 N          62.7446   87.8390   12.2195 N.3     1  UNL1       -0.1583
      2 C          63.4542   87.0654   13.2910 C.3     1  UNL1        0.0795
      3 C          63.8788   87.7517   14.5554 C.3     1  UNL1        0.0178
      4 C          63.5938   89.2116   14.7484 C.3     1  UNL1        0.0029
      5 C          62.8842   89.9853   13.6770 C.3     1  UNL1        0.0178
      6 C          62.4596   89.2990   12.4125 C.3     1  UNL1        0.0799
      7 O          63.3132   87.4300   10.0836 O.2     1  UNL1       -0.1528
      8 S          62.3201   87.1527   10.9551 S.O2    1  UNL1        0.0632
      9 O          61.0770   86.6641   11.6377 O.2     1  UNL1       -0.1528
     10 C          61.8956   86.4664    9.6907 C.ar    1  UNL1        0.1222
     11 C          60.5113   86.6757    9.1521 C.ar    1  UNL1        0.0208
     12 C          60.0868   85.9895    7.8877 C.ar    1  UNL1        0.0128
     13 C          61.0465   85.0939    7.1619 C.ar    1  UNL1        0.0578
     14 CL         60.6220   84.4076    5.8974 Cl      1  UNL1       -0.0822
     15 C          62.4308   84.8846    7.7004 C.ar    1  UNL1        0.0128
     16 C          62.8553   85.5709    8.9648 C.ar    1  UNL1        0.0208
     17 C          63.7392   85.6054   13.0980 C.3     1  UNL1        0.0164
     18 C          63.4017   84.2887   12.4637 C.3     1  UNL1        0.0014
     19 C          64.5705   84.3934   13.3980 C.3     1  UNL1        0.0014
     20 C          61.7501   90.0727   11.3411 C.3     1  UNL1        0.0240
     21 C          60.6462   90.7681   10.6010 C.3     1  UNL1        0.0019
     22 C          60.3681   90.1160   11.9229 C.3     1  UNL1        0.0019
     23 C          62.8855   90.2981   10.3873 C.3     1  UNL1        0.0894
     24 C          63.9031   91.3632   10.6708 C.ar    1  UNL1        0.2364
     25 N          65.0110   91.2781   11.6784 N.ar    1  UNL1       -0.1934
     26 C          65.7840   92.5626   11.6268 C.ar    1  UNL1        0.1966
     27 N          65.1538   93.4414   10.5873 N.ar    1  UNL1       -0.0592
     28 O          63.9914   92.7001    9.9965 O.2     1  UNL1       -0.3373
     29 C          66.9776   92.9076   12.4672 C.3     1  UNL1        0.1424
     30 N          66.8908   92.8263   13.9625 N.3     1  UNL1       -0.2641
     31 C          68.0508   92.8071   14.9132 C.3     1  UNL1        0.0751
     32 C          67.5057   92.7188   16.3079 C.3     1  UNL1        0.0480
     33 C          66.0088   92.6835   16.2190 C.3     1  UNL1        0.1278
     34 O          65.0587   92.5969   17.3765 O.3     1  UNL1       -0.3830
     35 C          65.6287   92.7499   14.7695 C.3     1  UNL1        0.1020
     36 H          64.1466   92.5900   17.0463 H       1  UNL1        0.2104
@<TRIPOS>BOND
     1     7     8    2
     2     8     9    2
     3     8    10    1
     4    10    11   ar
     5    11    12   ar
     6    12    13   ar
     7    13    14    1
     8    13    15   ar
     9    15    16   ar
    10     8     1    1
    11     1     2    1
    12     2    17    1
    13    17    18    1
    14    18    19    1
    15     2     3    1
    16     3     4    1
    17     4     5    1
    18     5     6    1
    19     6    20    1
    20    20    23    1
    21    23    24    1
    22    24    25   ar
    23    25    26   ar
    24    26    29    1
    25    29    30    1
    26    30    31    1
    27    31    32    1
    28    32    33    1
    29    33    34    1
    30    33    35    1
    31    26    27   ar
    32    27    28   ar
    33    20    21    1
    34    21    22    1
    35    16    10   ar
    36     6     1    1
    37    22    20    1
    38    19    17    1
    39    28    24   ar
    40    35    30    1
    41    34    36    1
@<TRIPOS>MOLECULE
*****
 36 41 0 0 0
SMALL
GASTEIGER

@<TRIPOS>ATOM
      1 N          63.0738   87.1643   12.4878 N.3     1  UNL1       -0.1583
      2 C          63.4660   85.7679   12.8706 C.3     1  UNL1        0.0795
      3 C          64.3269   85.5347   14.0766 C.3     1  UNL1        0.0178
      4 C          64.7957   86.6977   14.8997 C.3     1  UNL1        0.0029
      5 C          64.4036   88.0940   14.5169 C.3     1  UNL1        0.0178
      6 C          63.5426   88.3273   13.3109 C.3     1  UNL1        0.0799
      7 O          63.0467   87.9776   10.3924 O.2     1  UNL1       -0.1528
      8 S          62.2129   87.3975   11.2818 S.O2    1  UNL1        0.0632
      9 O          61.0435   86.7914   11.9994 O.2     1  UNL1       -0.1528
     10 C          61.3520   87.6308   10.0757 C.ar    1  UNL1        0.1222
     11 C          60.9539   89.0266    9.6971 C.ar    1  UNL1        0.0208
     12 C          60.0931   89.2599    8.4911 C.ar    1  UNL1        0.0128
     13 C          59.6303   88.0974    7.6638 C.ar    1  UNL1        0.0578
     14 CL         58.7693   88.3307    6.4577 Cl      1  UNL1       -0.0822
     15 C          60.0283   86.7017    8.0425 C.ar    1  UNL1        0.0128
     16 C          60.8892   86.4684    9.2485 C.ar    1  UNL1        0.0208
     17 C          62.9972   84.6049   12.0475 C.3     1  UNL1        0.0164
     18 C          62.7805   83.9646   10.7085 C.3     1  UNL1        0.0014
     19 C          62.4019   83.2308   11.9608 C.3     1  UNL1        0.0014
     20 C          63.1505   89.7236   12.9281 C.3     1  UNL1        0.0240
     21 C          62.3114   90.9549   12.7558 C.3     1  UNL1        0.0019
     22 C          61.7271   89.7334   13.4014 C.3     1  UNL1        0.0019
     23 C          64.4376   90.1987   12.3219 C.3     1  UNL1        0.0894
     24 C          64.9948   91.5392   12.6997 C.ar    1  UNL1        0.2364
     25 N          65.4369   92.6104   11.7473 N.ar    1  UNL1       -0.1934
     26 C          65.9230   93.7771   12.5551 C.ar    1  UNL1        0.1966
     27 N          65.7812   93.4269   14.0067 N.ar    1  UNL1       -0.0592
     28 O          65.2075   92.0439   14.0960 O.2     1  UNL1       -0.3373
     29 C          66.4570   95.0674   12.0074 C.3     1  UNL1        0.1424
     30 N          66.5467   95.2725   10.5242 N.3     1  UNL1       -0.2641
     31 C          67.5601   94.6529    9.6082 C.3     1  UNL1        0.0751
     32 C          67.2785   95.1306    8.2144 C.3     1  UNL1        0.0480
     33 C          66.0910   96.0454    8.2691 C.3     1  UNL1        0.1278
     34 O          65.4656   96.7490    7.1013 O.3     1  UNL1       -0.3830
     35 C          65.6387   96.1331    9.6966 C.3     1  UNL1        0.1020
     36 H          64.7129   97.2784    7.4081 H       1  UNL1        0.2104
@<TRIPOS>BOND
     1     7     8    2
     2     8     9    2
     3     8    10    1
     4    10    11   ar
     5    11    12   ar
     6    12    13   ar
     7    13    14    1
     8    13    15   ar
     9    15    16   ar
    10     8     1    1
    11     1     2    1
    12     2    17    1
    13    17    18    1
    14    18    19    1
    15     2     3    1
    16     3     4    1
    17     4     5    1
    18     5     6    1
    19     6    20    1
    20    20    23    1
    21    23    24    1
    22    24    25   ar
    23    25    26   ar
    24    26    29    1
    25    29    30    1
    26    30    31    1
    27    31    32    1
    28    32    33    1
    29    33    34    1
    30    33    35    1
    31    26    27   ar
    32    27    28   ar
    33    20    21    1
    34    21    22    1
    35    16    10   ar
    36     6     1    1
    37    22    20    1
    38    19    17    1
    39    28    24   ar
    40    35    30    1
    41    34    36    1
