@<TRIPOS>MOLECULE
*****
 28 32 0 0 0
SMALL
GASTEIGER

@<TRIPOS>ATOM
      1 O          63.5078   89.3758   12.7795 O.2     1  UNL1       -0.2638
      2 C          62.6832   88.7511   11.6933 C.2     1  UNL1        0.3160
      3 N          62.0421   89.6145   10.6477 N.am    1  UNL1       -0.1720
      4 C          61.2174   88.9898    9.5615 C.ar    1  UNL1        0.0775
      5 C          60.5763   89.8532    8.5159 C.ar    1  UNL1        0.0167
      6 C          59.7517   89.2285    7.4298 C.ar    1  UNL1        0.0013
      7 C          59.5682   87.7403    7.3893 C.ar    1  UNL1        0.0002
      8 C          60.2093   86.8769    8.4349 C.ar    1  UNL1        0.0051
      9 C          61.0339   87.5016    9.5211 C.ar    1  UNL1        0.0623
     10 C          61.6750   86.6382   10.5668 C.2     1  UNL1        0.2419
     11 N          61.6714   85.1539   10.7831 N.2     1  UNL1       -0.0302
     12 C          62.4939   84.8612   12.0029 C.2     1  UNL1        0.3787
     13 N          63.0057   86.1647   12.5405 N.2     1  UNL1       -0.0255
     14 C          62.4997   87.2629   11.6529 C.2     1  UNL1        0.2907
     15 C          62.7581   83.5035   12.5833 C.ar    1  UNL1        0.1263
     16 C          62.3276   83.1906   13.9857 C.ar    1  UNL1        0.1484
     17 F          61.6330   84.2354   14.8078 F       1  UNL1       -0.2039
     18 C          62.5918   81.8329   14.5659 C.ar    1  UNL1        0.0300
     19 C          63.2864   80.7881   13.7438 C.ar    1  UNL1        0.0032
     20 C          63.7169   81.1010   12.3414 C.ar    1  UNL1        0.0118
     21 C          63.4527   82.4587   11.7612 C.ar    1  UNL1        0.0673
     22 CL         63.8831   82.7716   10.3587 Cl      1  UNL1       -0.0819
     23 C          59.1106   90.0920    6.3840 C.ar    1  UNL1        0.0000
     24 C          59.9620   90.9415    5.4877 C.ar    1  UNL1        0.0000
     25 C          59.3209   91.8049    4.4420 C.ar    1  UNL1        0.0000
     26 C          57.8284   91.8188    4.2926 C.ar    1  UNL1        0.0000
     27 C          56.9770   90.9693    5.1890 C.ar    1  UNL1        0.0000
     28 C          57.6181   90.1059    6.2347 C.ar    1  UNL1        0.0000
@<TRIPOS>BOND
     1     1     2    2
     2     2     3    1
     3     3     4    2
     4     4     5   ar
     5     5     6   ar
     6     6    23    1
     7    23    24   ar
     8    24    25   ar
     9    25    26   ar
    10    26    27   ar
    11    27    28   ar
    12     6     7   ar
    13     7     8   ar
    14     8     9   ar
    15     9    10    2
    16    10    11    1
    17    11    12    2
    18    12    15    1
    19    15    16   ar
    20    16    17    1
    21    16    18   ar
    22    18    19   ar
    23    19    20   ar
    24    20    21   ar
    25    21    22    1
    26    12    13    1
    27    13    14    2
    28    14     2    1
    29     9     4   ar
    30    14    10    1
    31    28    23   ar
    32    21    15   ar
@<TRIPOS>MOLECULE
*****
 28 32 0 0 0
SMALL
GASTEIGER

@<TRIPOS>ATOM
      1 O          61.3322   89.0740    9.9537 O.2     1  UNL1       -0.2638
      2 C          62.0075   88.0566   10.8250 C.2     1  UNL1        0.3160
      3 N          61.8600   86.5947   10.5234 N.am    1  UNL1       -0.1720
      4 C          62.5352   85.5773   11.3947 C.ar    1  UNL1        0.0775
      5 C          62.3877   84.1154   11.0931 C.ar    1  UNL1        0.0167
      6 C          63.0629   83.0981   11.9643 C.ar    1  UNL1        0.0013
      7 C          63.8856   83.5427   13.1372 C.ar    1  UNL1        0.0002
      8 C          64.0331   85.0046   13.4387 C.ar    1  UNL1        0.0051
      9 C          63.3579   86.0219   12.5675 C.ar    1  UNL1        0.0623
     10 C          63.5054   87.4839   12.8690 C.2     1  UNL1        0.2419
     11 N          64.2468   88.2163   13.9478 N.2     1  UNL1       -0.0302
     12 C          64.0298   89.6864   13.7433 C.2     1  UNL1        0.3787
     13 N          63.1543   89.8625   12.5381 N.2     1  UNL1       -0.0255
     14 C          62.8302   88.5012   11.9978 C.2     1  UNL1        0.2907
     15 C          64.5899   90.7872   14.5946 C.ar    1  UNL1        0.1263
     16 C          65.6169   91.7233   14.0299 C.ar    1  UNL1        0.1484
     17 F          66.0837   91.5588   12.6139 F       1  UNL1       -0.2039
     18 C          66.1770   92.8240   14.8812 C.ar    1  UNL1        0.0300
     19 C          65.7102   92.9885   16.2971 C.ar    1  UNL1        0.0032
     20 C          64.6832   92.0524   16.8618 C.ar    1  UNL1        0.0118
     21 C          64.1231   90.9517   16.0106 C.ar    1  UNL1        0.0673
     22 CL         63.0961   90.0155   16.5753 Cl      1  UNL1       -0.0819
     23 C          62.9154   81.6360   11.6628 C.ar    1  UNL1        0.0000
     24 C          63.0773   81.1403   10.2564 C.ar    1  UNL1        0.0000
     25 C          62.9299   79.6784    9.9548 C.ar    1  UNL1        0.0000
     26 C          62.6205   78.7121   11.0597 C.ar    1  UNL1        0.0000
     27 C          62.4586   79.2078   12.4661 C.ar    1  UNL1        0.0000
     28 C          62.6061   80.6699   12.7676 C.ar    1  UNL1        0.0000
@<TRIPOS>BOND
     1     1     2    2
     2     2     3    1
     3     3     4    2
     4     4     5   ar
     5     5     6   ar
     6     6    23    1
     7    23    24   ar
     8    24    25   ar
     9    25    26   ar
    10    26    27   ar
    11    27    28   ar
    12     6     7   ar
    13     7     8   ar
    14     8     9   ar
    15     9    10    2
    16    10    11    1
    17    11    12    2
    18    12    15    1
    19    15    16   ar
    20    16    17    1
    21    16    18   ar
    22    18    19   ar
    23    19    20   ar
    24    20    21   ar
    25    21    22    1
    26    12    13    1
    27    13    14    2
    28    14     2    1
    29     9     4   ar
    30    14    10    1
    31    28    23   ar
    32    21    15   ar
@<TRIPOS>MOLECULE
*****
 28 32 0 0 0
SMALL
GASTEIGER

@<TRIPOS>ATOM
      1 O          61.3337   89.1587   10.0295 O.2     1  UNL1       -0.2638
      2 C          62.0095   88.1323   10.8897 C.2     1  UNL1        0.3160
      3 N          61.8644   86.6738   10.5712 N.am    1  UNL1       -0.1720
      4 C          62.5402   85.6474   11.4314 C.ar    1  UNL1        0.0775
      5 C          62.3952   84.1888   11.1129 C.ar    1  UNL1        0.0167
      6 C          63.0710   83.1625   11.9732 C.ar    1  UNL1        0.0013
      7 C          63.8918   83.5948   13.1519 C.ar    1  UNL1        0.0002
      8 C          64.0368   85.0534   13.4704 C.ar    1  UNL1        0.0051
      9 C          63.3611   86.0797   12.6102 C.ar    1  UNL1        0.0623
     10 C          63.5061   87.5383   12.9286 C.2     1  UNL1        0.2419
     11 N          64.2453   88.2594   14.0166 N.2     1  UNL1       -0.0302
     12 C          64.0263   89.7314   13.8287 C.2     1  UNL1        0.3787
     13 N          63.1518   89.9200   12.6247 N.2     1  UNL1       -0.0255
     14 C          62.8303   88.5646   12.0684 C.2     1  UNL1        0.2907
     15 C          64.5840   90.8231   14.6932 C.ar    1  UNL1        0.1263
     16 C          64.0825   90.9991   16.0959 C.ar    1  UNL1        0.1484
     17 F          63.0233   90.0835   16.6341 F       1  UNL1       -0.2039
     18 C          64.6402   92.0908   16.9602 C.ar    1  UNL1        0.0300
     19 C          65.6993   93.0065   16.4220 C.ar    1  UNL1        0.0032
     20 C          66.2008   92.8305   15.0193 C.ar    1  UNL1        0.0118
     21 C          65.6431   91.7388   14.1549 C.ar    1  UNL1        0.0673
     22 CL         66.1446   91.5628   12.7522 Cl      1  UNL1       -0.0819
     23 C          62.9260   81.7039   11.6547 C.ar    1  UNL1        0.0000
     24 C          62.5821   80.7294   12.7420 C.ar    1  UNL1        0.0000
     25 C          62.4371   79.2708   12.4236 C.ar    1  UNL1        0.0000
     26 C          62.6359   78.7866   11.0178 C.ar    1  UNL1        0.0000
     27 C          62.9797   79.7611    9.9305 C.ar    1  UNL1        0.0000
     28 C          63.1247   81.2198   10.2490 C.ar    1  UNL1        0.0000
@<TRIPOS>BOND
     1     1     2    2
     2     2     3    1
     3     3     4    2
     4     4     5   ar
     5     5     6   ar
     6     6    23    1
     7    23    24   ar
     8    24    25   ar
     9    25    26   ar
    10    26    27   ar
    11    27    28   ar
    12     6     7   ar
    13     7     8   ar
    14     8     9   ar
    15     9    10    2
    16    10    11    1
    17    11    12    2
    18    12    15    1
    19    15    16   ar
    20    16    17    1
    21    16    18   ar
    22    18    19   ar
    23    19    20   ar
    24    20    21   ar
    25    21    22    1
    26    12    13    1
    27    13    14    2
    28    14     2    1
    29     9     4   ar
    30    14    10    1
    31    28    23   ar
    32    21    15   ar
@<TRIPOS>MOLECULE
*****
 28 32 0 0 0
SMALL
GASTEIGER

@<TRIPOS>ATOM
      1 O          61.6071   89.5999   10.5595 O.2     1  UNL1       -0.2638
      2 C          62.2747   88.6249   11.4836 C.2     1  UNL1        0.3160
      3 N          61.9201   87.1688   11.4211 N.am    1  UNL1       -0.1720
      4 C          62.5877   86.1939   12.3452 C.ar    1  UNL1        0.0775
      5 C          62.2330   84.7378   12.2827 C.ar    1  UNL1        0.0167
      6 C          62.9006   83.7630   13.2068 C.ar    1  UNL1        0.0013
      7 C          63.9229   84.2443   14.1934 C.ar    1  UNL1        0.0002
      8 C          64.2776   85.7003   14.2559 C.ar    1  UNL1        0.0051
      9 C          63.6100   86.6752   13.3318 C.ar    1  UNL1        0.0623
     10 C          63.9646   88.1314   13.3943 C.2     1  UNL1        0.2419
     11 N          64.9270   88.8939   14.2559 N.2     1  UNL1       -0.0302
     12 C          64.8541   90.3400   13.8644 C.2     1  UNL1        0.3787
     13 N          63.8468   90.4712   12.7607 N.2     1  UNL1       -0.0255
     14 C          63.2970   89.1062   12.4702 C.2     1  UNL1        0.2907
     15 C          65.6491   91.4586   14.4701 C.ar    1  UNL1        0.1263
     16 C          66.8099   92.0443   13.7222 C.ar    1  UNL1        0.1484
     17 F          67.1758   91.5116   12.3686 F       1  UNL1       -0.2039
     18 C          67.6049   93.1629   14.3280 C.ar    1  UNL1        0.0300
     19 C          67.2390   93.6956   15.6816 C.ar    1  UNL1        0.0032
     20 C          66.0782   93.1099   16.4295 C.ar    1  UNL1        0.0118
     21 C          65.2832   91.9914   15.8237 C.ar    1  UNL1        0.0673
     22 CL         64.1224   91.4055   16.5716 Cl      1  UNL1       -0.0819
     23 C          62.5460   82.3068   13.1443 C.ar    1  UNL1        0.0000
     24 C          61.6409   81.7102   14.1810 C.ar    1  UNL1        0.0000
     25 C          61.2863   80.2541   14.1186 C.ar    1  UNL1        0.0000
     26 C          61.8367   79.3945   13.0193 C.ar    1  UNL1        0.0000
     27 C          62.7418   79.9911   11.9826 C.ar    1  UNL1        0.0000
     28 C          63.0964   81.4473   12.0451 C.ar    1  UNL1        0.0000
@<TRIPOS>BOND
     1     1     2    2
     2     2     3    1
     3     3     4    2
     4     4     5   ar
     5     5     6   ar
     6     6    23    1
     7    23    24   ar
     8    24    25   ar
     9    25    26   ar
    10    26    27   ar
    11    27    28   ar
    12     6     7   ar
    13     7     8   ar
    14     8     9   ar
    15     9    10    2
    16    10    11    1
    17    11    12    2
    18    12    15    1
    19    15    16   ar
    20    16    17    1
    21    16    18   ar
    22    18    19   ar
    23    19    20   ar
    24    20    21   ar
    25    21    22    1
    26    12    13    1
    27    13    14    2
    28    14     2    1
    29     9     4   ar
    30    14    10    1
    31    28    23   ar
    32    21    15   ar
@<TRIPOS>MOLECULE
*****
 28 32 0 0 0
SMALL
GASTEIGER

@<TRIPOS>ATOM
      1 O          63.1444   88.6186   17.9606 O.2     1  UNL1       -0.2638
      2 C          63.2891   87.9454   16.6279 C.2     1  UNL1        0.3160
      3 N          62.9269   86.4978   16.4756 N.am    1  UNL1       -0.1720
      4 C          63.0717   85.8246   15.1430 C.ar    1  UNL1        0.0775
      5 C          62.7095   84.3770   14.9907 C.ar    1  UNL1        0.0167
      6 C          62.8543   83.7039   13.6581 C.ar    1  UNL1        0.0013
      7 C          63.3613   84.4783   12.4778 C.ar    1  UNL1        0.0002
      8 C          63.7235   85.9259   12.6300 C.ar    1  UNL1        0.0051
      9 C          63.5787   86.5990   13.9627 C.ar    1  UNL1        0.0623
     10 C          63.9409   88.0467   14.1150 C.2     1  UNL1        0.2419
     11 N          64.4629   89.0588   13.1387 N.2     1  UNL1       -0.0302
     12 C          64.6408   90.3574   13.8680 C.2     1  UNL1        0.3787
     13 N          64.2287   90.1480   15.2949 N.2     1  UNL1       -0.0255
     14 C          63.7961   88.7198   15.4476 C.2     1  UNL1        0.2907
     15 C          65.1426   91.6404   13.2744 C.ar    1  UNL1        0.1263
     16 C          64.7751   92.0104   11.8680 C.ar    1  UNL1        0.1484
     17 F          63.9058   91.0975   11.0551 F       1  UNL1       -0.2039
     18 C          65.2770   93.2933   11.2745 C.ar    1  UNL1        0.0300
     19 C          66.1463   94.2062   12.0874 C.ar    1  UNL1        0.0032
     20 C          66.5138   93.8362   13.4938 C.ar    1  UNL1        0.0118
     21 C          66.0120   92.5533   14.0873 C.ar    1  UNL1        0.0673
     22 CL         66.3795   92.1833   15.4938 Cl      1  UNL1       -0.0819
     23 C          62.4921   82.2562   13.5057 C.ar    1  UNL1        0.0000
     24 C          63.2398   81.3945   12.5319 C.ar    1  UNL1        0.0000
     25 C          62.8776   79.9469   12.3795 C.ar    1  UNL1        0.0000
     26 C          61.7677   79.3609   13.2010 C.ar    1  UNL1        0.0000
     27 C          61.0200   80.2226   14.1748 C.ar    1  UNL1        0.0000
     28 C          61.3822   81.6703   14.3272 C.ar    1  UNL1        0.0000
@<TRIPOS>BOND
     1     1     2    2
     2     2     3    1
     3     3     4    2
     4     4     5   ar
     5     5     6   ar
     6     6    23    1
     7    23    24   ar
     8    24    25   ar
     9    25    26   ar
    10    26    27   ar
    11    27    28   ar
    12     6     7   ar
    13     7     8   ar
    14     8     9   ar
    15     9    10    2
    16    10    11    1
    17    11    12    2
    18    12    15    1
    19    15    16   ar
    20    16    17    1
    21    16    18   ar
    22    18    19   ar
    23    19    20   ar
    24    20    21   ar
    25    21    22    1
    26    12    13    1
    27    13    14    2
    28    14     2    1
    29     9     4   ar
    30    14    10    1
    31    28    23   ar
    32    21    15   ar
@<TRIPOS>MOLECULE
*****
 28 32 0 0 0
SMALL
GASTEIGER

@<TRIPOS>ATOM
      1 O          61.1590   86.8517    9.3836 O.2     1  UNL1       -0.2638
      2 C          61.9772   86.8518   10.6408 C.2     1  UNL1        0.3160
      3 N          62.4439   88.1491   11.2319 N.am    1  UNL1       -0.1720
      4 C          63.2621   88.1492   12.4891 C.ar    1  UNL1        0.0775
      5 C          63.7288   89.4464   13.0802 C.ar    1  UNL1        0.0167
      6 C          64.5470   89.4464   14.3373 C.ar    1  UNL1        0.0013
      7 C          64.8986   88.1492   15.0034 C.ar    1  UNL1        0.0002
      8 C          64.4320   86.8520   14.4123 C.ar    1  UNL1        0.0051
      9 C          63.6138   86.8520   13.1552 C.ar    1  UNL1        0.0623
     10 C          63.1471   85.5547   12.5641 C.2     1  UNL1        0.2419
     11 N          63.3368   84.1302   12.9938 N.2     1  UNL1       -0.0302
     12 C          62.6358   83.2496   12.0021 C.2     1  UNL1        0.3787
     13 N          62.0129   84.1300   10.9596 N.2     1  UNL1       -0.0255
     14 C          62.3289   85.5546   11.3069 C.2     1  UNL1        0.2907
     15 C          62.5694   81.7517   12.0455 C.ar    1  UNL1        0.1263
     16 C          63.0146   80.9467   10.8607 C.ar    1  UNL1        0.1484
     17 F          63.5261   81.6395    9.6325 F       1  UNL1       -0.2039
     18 C          62.9482   79.4488   10.9040 C.ar    1  UNL1        0.0300
     19 C          62.4366   78.7560   12.1322 C.ar    1  UNL1        0.0032
     20 C          61.9915   79.5610   13.3170 C.ar    1  UNL1        0.0118
     21 C          62.0579   81.0589   13.2736 C.ar    1  UNL1        0.0673
     22 CL         61.6128   81.8640   14.4584 Cl      1  UNL1       -0.0819
     23 C          65.0137   90.7437   14.9284 C.ar    1  UNL1        0.0000
     24 C          64.3212   91.3117   16.1317 C.ar    1  UNL1        0.0000
     25 C          64.7878   92.6089   16.7229 C.ar    1  UNL1        0.0000
     26 C          65.9469   93.3382   16.1107 C.ar    1  UNL1        0.0000
     27 C          66.6394   92.7702   14.9074 C.ar    1  UNL1        0.0000
     28 C          66.1727   91.4729   14.3163 C.ar    1  UNL1        0.0000
@<TRIPOS>BOND
     1     1     2    2
     2     2     3    1
     3     3     4    2
     4     4     5   ar
     5     5     6   ar
     6     6    23    1
     7    23    24   ar
     8    24    25   ar
     9    25    26   ar
    10    26    27   ar
    11    27    28   ar
    12     6     7   ar
    13     7     8   ar
    14     8     9   ar
    15     9    10    2
    16    10    11    1
    17    11    12    2
    18    12    15    1
    19    15    16   ar
    20    16    17    1
    21    16    18   ar
    22    18    19   ar
    23    19    20   ar
    24    20    21   ar
    25    21    22    1
    26    12    13    1
    27    13    14    2
    28    14     2    1
    29     9     4   ar
    30    14    10    1
    31    28    23   ar
    32    21    15   ar
@<TRIPOS>MOLECULE
*****
 28 32 0 0 0
SMALL
GASTEIGER

@<TRIPOS>ATOM
      1 O          60.9119   87.1056    9.5771 O.2     1  UNL1       -0.2638
      2 C          61.8476   87.2201   10.7439 C.2     1  UNL1        0.3160
      3 N          62.4166   88.5558   11.1207 N.am    1  UNL1       -0.1720
      4 C          63.3523   88.6704   12.2876 C.ar    1  UNL1        0.0775
      5 C          63.9212   90.0061   12.6644 C.ar    1  UNL1        0.0167
      6 C          64.8569   90.1206   13.8311 C.ar    1  UNL1        0.0013
      7 C          65.2235   88.8993   14.6212 C.ar    1  UNL1        0.0002
      8 C          64.6545   87.5636   14.2444 C.ar    1  UNL1        0.0051
      9 C          63.7189   87.4491   13.0776 C.ar    1  UNL1        0.0623
     10 C          63.1498   86.1133   12.7007 C.2     1  UNL1        0.2419
     11 N          63.3279   84.7447   13.2882 N.2     1  UNL1       -0.0302
     12 C          62.5023   83.7843   12.4845 C.2     1  UNL1        0.3787
     13 N          61.8140   84.5594   11.4003 N.2     1  UNL1       -0.0255
     14 C          62.2142   85.9989   11.5339 C.2     1  UNL1        0.2907
     15 C          62.3854   82.3080   12.7231 C.ar    1  UNL1        0.1263
     16 C          61.7980   81.7998   14.0063 C.ar    1  UNL1        0.1484
     17 F          61.3274   82.7679   15.0509 F       1  UNL1       -0.2039
     18 C          61.6812   80.3236   14.2448 C.ar    1  UNL1        0.0300
     19 C          62.1518   79.3555   13.2001 C.ar    1  UNL1        0.0032
     20 C          62.7392   79.8637   11.9169 C.ar    1  UNL1        0.0118
     21 C          62.8560   81.3399   11.6784 C.ar    1  UNL1        0.0673
     22 CL         63.4435   81.8482   10.3951 Cl      1  UNL1       -0.0819
     23 C          65.4259   91.4564   14.2080 C.ar    1  UNL1        0.0000
     24 C          65.7708   92.4527   13.1410 C.ar    1  UNL1        0.0000
     25 C          66.3399   93.7884   13.5178 C.ar    1  UNL1        0.0000
     26 C          66.5640   94.1279   14.9616 C.ar    1  UNL1        0.0000
     27 C          66.2190   93.1316   16.0286 C.ar    1  UNL1        0.0000
     28 C          65.6500   91.7959   15.6518 C.ar    1  UNL1        0.0000
@<TRIPOS>BOND
     1     1     2    2
     2     2     3    1
     3     3     4    2
     4     4     5   ar
     5     5     6   ar
     6     6    23    1
     7    23    24   ar
     8    24    25   ar
     9    25    26   ar
    10    26    27   ar
    11    27    28   ar
    12     6     7   ar
    13     7     8   ar
    14     8     9   ar
    15     9    10    2
    16    10    11    1
    17    11    12    2
    18    12    15    1
    19    15    16   ar
    20    16    17    1
    21    16    18   ar
    22    18    19   ar
    23    19    20   ar
    24    20    21   ar
    25    21    22    1
    26    12    13    1
    27    13    14    2
    28    14     2    1
    29     9     4   ar
    30    14    10    1
    31    28    23   ar
    32    21    15   ar
