@<TRIPOS>MOLECULE
*****
 27 30 0 0 0
SMALL
GASTEIGER

@<TRIPOS>ATOM
      1 C          63.7171   89.1643   15.7884 C.ar    1  UNL1        0.0207
      2 C          63.0655   88.4483   16.9341 C.ar    1  UNL1        0.0994
      3 N          63.0477   86.9488   16.9689 N.ar    1  UNL1       -0.2126
      4 C          63.6815   86.1652   15.8578 C.ar    1  UNL1        0.2172
      5 N          64.3330   86.8813   14.7120 N.ar    1  UNL1       -0.2126
      6 C          64.3508   88.3808   14.6773 C.ar    1  UNL1        0.0994
      7 N          63.6636   84.6657   15.8926 N.pl3   1  UNL1       -0.2990
      8 H          64.4185   84.1735   16.2891 H       1  UNL1        0.1500
      9 C          62.4957   83.9162   15.3233 C.3     1  UNL1        0.1180
     10 C          62.6565   83.1251   14.0590 C.ar    1  UNL1        0.0167
     11 C          62.3391   81.6592   14.0460 C.ar    1  UNL1        0.0014
     12 C          62.4999   80.8682   12.7817 C.ar    1  UNL1        0.0305
     13 C          62.9780   81.5431   11.5304 C.ar    1  UNL1        0.1383
     14 CL         63.1388   80.7520   10.2661 Cl      1  UNL1       -0.0613
     15 N          63.2954   83.0091   11.5434 N.ar    1  UNL1       -0.2327
     16 C          63.1346   83.8001   12.8077 C.ar    1  UNL1        0.0972
     17 C          63.7349   90.6637   15.7536 C.3     1  UNL1        0.0596
     18 C          63.0323   91.1888    9.9207 C.3     1  UNL1        0.0307
     19 C          64.0200   91.5811   10.9794 C.2     1  UNL1        0.0074
     20 C          65.2575   92.3418   10.6056 C.2     1  UNL1        0.2278
     21 N          66.2451   92.7342   11.6642 N.2     1  UNL1       -0.0314
     22 C          65.9952   92.3657   13.0966 C.2     1  UNL1        0.3716
     23 N          66.7826   92.6139   14.3489 N.2     1  UNL1       -0.0311
     24 C          66.0318   92.0066   15.4967 C.2     1  UNL1        0.2319
     25 C          64.7803   91.3830   14.9537 C.2     1  UNL1        0.0328
     26 C          64.7577   91.6050   13.4704 C.2     1  UNL1        0.0704
     27 C          63.7700   91.2127   12.4117 C.3     1  UNL1        0.0598
@<TRIPOS>BOND
     1    18    19    1
     2    19    20    2
     3    20    21    1
     4    21    22    2
     5    22    23    1
     6    23    24    2
     7    24    25    1
     8    25    17    1
     9    17     1    1
    10     1     2   ar
    11     2     3   ar
    12     3     4   ar
    13     4     7    1
    14     7     9    1
    15     9    10    1
    16    10    11   ar
    17    11    12   ar
    18    12    13   ar
    19    13    14    1
    20    13    15   ar
    21    15    16   ar
    22     4     5   ar
    23     5     6   ar
    24    25    26    2
    25    26    27    1
    26    27    19    1
    27    26    22    1
    28     6     1   ar
    29    16    10   ar
    30     7     8    1
@<TRIPOS>MOLECULE
*****
 27 30 0 0 0
SMALL
GASTEIGER

@<TRIPOS>ATOM
      1 C          63.6677   88.5415   15.8006 C.ar    1  UNL1        0.0207
      2 C          64.5050   87.9462   14.7078 C.ar    1  UNL1        0.0994
      3 N          64.6809   86.4590   14.6232 N.ar    1  UNL1       -0.2126
      4 C          64.0193   85.5670   15.6315 C.ar    1  UNL1        0.2172
      5 N          63.1820   86.1623   16.7245 N.ar    1  UNL1       -0.2126
      6 C          63.0061   87.6496   16.8090 C.ar    1  UNL1        0.0994
      7 N          64.1952   84.0797   15.5470 N.pl3   1  UNL1       -0.2990
      8 H          64.8683   83.6309   16.1080 H       1  UNL1        0.1500
      9 C          63.3455   83.2762   14.6076 C.3     1  UNL1        0.1180
     10 C          63.3588   83.5794   13.1387 C.ar    1  UNL1        0.0167
     11 C          64.2767   82.8228   12.2249 C.ar    1  UNL1        0.0014
     12 C          64.2900   83.1259   10.7560 C.ar    1  UNL1        0.0305
     13 C          63.3854   84.1858   10.2007 C.ar    1  UNL1        0.1383
     14 CL         63.3987   84.4890    8.7317 Cl      1  UNL1       -0.0613
     15 N          62.4675   84.9425   11.1145 N.ar    1  UNL1       -0.2327
     16 C          62.4542   84.6393   12.5834 C.ar    1  UNL1        0.0972
     17 C          63.4918   90.0288   15.8852 C.3     1  UNL1        0.0596
     18 C          62.1962   90.1538   10.1322 C.3     1  UNL1        0.0307
     19 C          63.1570   90.7968   11.0879 C.2     1  UNL1        0.0074
     20 C          64.1560   91.7975   10.5874 C.2     1  UNL1        0.2278
     21 N          65.1168   92.4405   11.5431 N.2     1  UNL1       -0.0314
     22 C          65.0786   92.0829   12.9993 C.2     1  UNL1        0.3716
     23 N          65.8938   92.5488   14.1691 N.2     1  UNL1       -0.0311
     24 C          65.3986   91.8360   15.3925 C.2     1  UNL1        0.2319
     25 C          64.2773   90.9296   14.9789 C.2     1  UNL1        0.0328
     26 C          64.0795   91.0822   13.4998 C.2     1  UNL1        0.0704
     27 C          63.1188   90.4391   12.5441 C.3     1  UNL1        0.0598
@<TRIPOS>BOND
     1    18    19    1
     2    19    20    2
     3    20    21    1
     4    21    22    2
     5    22    23    1
     6    23    24    2
     7    24    25    1
     8    25    17    1
     9    17     1    1
    10     1     2   ar
    11     2     3   ar
    12     3     4   ar
    13     4     7    1
    14     7     9    1
    15     9    10    1
    16    10    11   ar
    17    11    12   ar
    18    12    13   ar
    19    13    14    1
    20    13    15   ar
    21    15    16   ar
    22     4     5   ar
    23     5     6   ar
    24    25    26    2
    25    26    27    1
    26    27    19    1
    27    26    22    1
    28     6     1   ar
    29    16    10   ar
    30     7     8    1
@<TRIPOS>MOLECULE
*****
 27 30 0 0 0
SMALL
GASTEIGER

@<TRIPOS>ATOM
      1 C          63.2876   84.4834   14.7395 C.ar    1  UNL1        0.0207
      2 C          64.2112   85.6003   14.3529 C.ar    1  UNL1        0.0994
      3 N          64.2007   86.8846   15.1278 N.ar    1  UNL1       -0.2126
      4 C          63.2664   87.0520   16.2893 C.ar    1  UNL1        0.2172
      5 N          62.3428   85.9351   16.6760 N.ar    1  UNL1       -0.2126
      6 C          62.3534   84.6508   15.9011 C.ar    1  UNL1        0.0994
      7 N          63.2559   88.3363   17.0642 N.pl3   1  UNL1       -0.2990
      8 H          63.5093   88.3394   18.0155 H       1  UNL1        0.1500
      9 C          62.8591   89.6160   16.3897 C.3     1  UNL1        0.1180
     10 C          63.9130   90.5413   15.8575 C.ar    1  UNL1        0.0167
     11 C          64.5557   90.2623   14.5312 C.ar    1  UNL1        0.0014
     12 C          65.6096   91.1876   13.9990 C.ar    1  UNL1        0.0305
     13 C          66.0207   92.3920   14.7931 C.ar    1  UNL1        0.1383
     14 CL         67.0745   93.3172   14.2609 Cl      1  UNL1       -0.0613
     15 N          65.3779   92.6709   16.1194 N.ar    1  UNL1       -0.2327
     16 C          64.3241   91.7456   16.6516 C.ar    1  UNL1        0.0972
     17 C          63.2982   83.1991   13.9647 C.3     1  UNL1        0.0596
     18 C          60.7406   87.1558   10.4157 C.3     1  UNL1        0.0307
     19 C          61.7327   86.0342   10.3277 C.2     1  UNL1        0.0074
     20 C          62.3559   85.6860    9.0085 C.2     1  UNL1        0.2278
     21 N          63.3480   84.5644    8.9204 N.2     1  UNL1       -0.0314
     22 C          63.7168   83.7909   10.1515 C.2     1  UNL1        0.3716
     23 N          64.6566   82.6427   10.3715 N.2     1  UNL1       -0.0311
     24 C          64.6142   82.2813   11.8267 C.2     1  UNL1        0.2319
     25 C          63.6482   83.2060   12.5061 C.2     1  UNL1        0.0328
     26 C          63.0935   84.1391   11.4707 C.2     1  UNL1        0.0704
     27 C          62.1015   85.2607   11.5588 C.3     1  UNL1        0.0598
@<TRIPOS>BOND
     1    18    19    1
     2    19    20    2
     3    20    21    1
     4    21    22    2
     5    22    23    1
     6    23    24    2
     7    24    25    1
     8    25    17    1
     9    17     1    1
    10     1     2   ar
    11     2     3   ar
    12     3     4   ar
    13     4     7    1
    14     7     9    1
    15     9    10    1
    16    10    11   ar
    17    11    12   ar
    18    12    13   ar
    19    13    14    1
    20    13    15   ar
    21    15    16   ar
    22     4     5   ar
    23     5     6   ar
    24    25    26    2
    25    26    27    1
    26    27    19    1
    27    26    22    1
    28     6     1   ar
    29    16    10   ar
    30     7     8    1
@<TRIPOS>MOLECULE
*****
 27 30 0 0 0
SMALL
GASTEIGER

@<TRIPOS>ATOM
      1 C          62.8316   84.7739   10.2703 C.ar    1  UNL1        0.0207
      2 C          62.0607   85.2727   11.4564 C.ar    1  UNL1        0.0994
      3 N          62.3449   84.7205   12.8218 N.ar    1  UNL1       -0.2126
      4 C          63.3999   83.6694   13.0012 C.ar    1  UNL1        0.2172
      5 N          64.1708   83.1706   11.8150 N.ar    1  UNL1       -0.2126
      6 C          63.8867   83.7228   10.4495 C.ar    1  UNL1        0.0994
      7 N          63.6840   83.1172   14.3666 N.pl3   1  UNL1       -0.2990
      8 H          63.3478   82.2265   14.6171 H       1  UNL1        0.1500
      9 C          64.4804   83.9222   15.3503 C.3     1  UNL1        0.1180
     10 C          64.1402   85.3633   15.5901 C.ar    1  UNL1        0.0167
     11 C          64.7271   86.4286   14.7124 C.ar    1  UNL1        0.0014
     12 C          64.3869   87.8697   14.9522 C.ar    1  UNL1        0.0305
     13 C          63.4596   88.2455   16.0698 C.ar    1  UNL1        0.1383
     14 CL         63.1193   89.6865   16.3096 Cl      1  UNL1       -0.0613
     15 N          62.8726   87.1800   16.9475 N.ar    1  UNL1       -0.2327
     16 C          63.2129   85.7390   16.7077 C.ar    1  UNL1        0.0972
     17 C          62.5475   85.3261    8.9049 C.3     1  UNL1        0.0596
     18 C          63.0782   90.4711   11.7401 C.3     1  UNL1        0.0307
     19 C          62.1287   89.7939   10.7968 C.2     1  UNL1        0.0074
     20 C          60.8905   90.5062   10.3392 C.2     1  UNL1        0.2278
     21 N          59.9410   89.8290    9.3959 N.2     1  UNL1       -0.0314
     22 C          60.2297   88.4395    8.9102 C.2     1  UNL1        0.3716
     23 N          59.4842   87.5247    7.9842 N.2     1  UNL1       -0.0311
     24 C          60.2617   86.2471    7.8694 C.2     1  UNL1        0.2319
     25 C          61.4877   86.3722    8.7246 C.2     1  UNL1        0.0328
     26 C          61.4679   87.7272    9.3678 C.2     1  UNL1        0.0704
     27 C          62.4174   88.4044   10.3111 C.3     1  UNL1        0.0598
@<TRIPOS>BOND
     1    18    19    1
     2    19    20    2
     3    20    21    1
     4    21    22    2
     5    22    23    1
     6    23    24    2
     7    24    25    1
     8    25    17    1
     9    17     1    1
    10     1     2   ar
    11     2     3   ar
    12     3     4   ar
    13     4     7    1
    14     7     9    1
    15     9    10    1
    16    10    11   ar
    17    11    12   ar
    18    12    13   ar
    19    13    14    1
    20    13    15   ar
    21    15    16   ar
    22     4     5   ar
    23     5     6   ar
    24    25    26    2
    25    26    27    1
    26    27    19    1
    27    26    22    1
    28     6     1   ar
    29    16    10   ar
    30     7     8    1
@<TRIPOS>MOLECULE
*****
 27 30 0 0 0
SMALL
GASTEIGER

@<TRIPOS>ATOM
      1 C          63.8154   91.5069   11.0833 C.ar    1  UNL1        0.0207
      2 C          62.9529   91.0943    9.9276 C.ar    1  UNL1        0.0994
      3 N          61.9891   89.9551   10.0802 N.ar    1  UNL1       -0.2126
      4 C          61.8879   89.2283   11.3885 C.ar    1  UNL1        0.2172
      5 N          62.7505   89.6409   12.5442 N.ar    1  UNL1       -0.2126
      6 C          63.7143   90.7802   12.3917 C.ar    1  UNL1        0.0994
      7 N          60.9241   88.0891   11.5410 N.pl3   1  UNL1       -0.2990
      8 H          60.8776   87.5941   12.3907 H       1  UNL1        0.1500
      9 C          60.0313   87.7040   10.3988 C.3     1  UNL1        0.1180
     10 C          60.5625   86.8487    9.2870 C.ar    1  UNL1        0.0167
     11 C          61.9902   86.3894    9.3106 C.ar    1  UNL1        0.0014
     12 C          62.5214   85.5340    8.1988 C.ar    1  UNL1        0.0305
     13 C          61.6248   85.1379    7.0633 C.ar    1  UNL1        0.1383
     14 CL         62.1560   84.2825    5.9515 Cl      1  UNL1       -0.0613
     15 N          60.1970   85.5972    7.0397 N.ar    1  UNL1       -0.2327
     16 C          59.6659   86.4525    8.1515 C.ar    1  UNL1        0.0972
     17 C          64.7792   92.6461   10.9308 C.3     1  UNL1        0.0596
     18 C          66.4330   92.5932   16.5924 C.3     1  UNL1        0.0307
     19 C          67.0536   92.4626   15.2331 C.2     1  UNL1        0.0074
     20 C          68.5326   92.2501   15.1011 C.2     1  UNL1        0.2278
     21 N          69.1532   92.1195   13.7418 N.2     1  UNL1       -0.0314
     22 C          68.2949   92.2013   12.5144 C.2     1  UNL1        0.3716
     23 N          68.6213   92.1089   11.0533 N.2     1  UNL1       -0.0311
     24 C          67.3441   92.2642   10.2822 C.2     1  UNL1        0.2319
     25 C          66.2282   92.4527   11.2668 C.2     1  UNL1        0.0328
     26 C          66.8159   92.4138   12.6464 C.2     1  UNL1        0.0704
     27 C          66.1953   92.5444   14.0057 C.3     1  UNL1        0.0598
@<TRIPOS>BOND
     1    18    19    1
     2    19    20    2
     3    20    21    1
     4    21    22    2
     5    22    23    1
     6    23    24    2
     7    24    25    1
     8    25    17    1
     9    17     1    1
    10     1     2   ar
    11     2     3   ar
    12     3     4   ar
    13     4     7    1
    14     7     9    1
    15     9    10    1
    16    10    11   ar
    17    11    12   ar
    18    12    13   ar
    19    13    14    1
    20    13    15   ar
    21    15    16   ar
    22     4     5   ar
    23     5     6   ar
    24    25    26    2
    25    26    27    1
    26    27    19    1
    27    26    22    1
    28     6     1   ar
    29    16    10   ar
    30     7     8    1
@<TRIPOS>MOLECULE
*****
 27 30 0 0 0
SMALL
GASTEIGER

@<TRIPOS>ATOM
      1 C          62.2973   88.5618   11.1976 C.ar    1  UNL1        0.0207
      2 C          63.1135   88.4515   12.4512 C.ar    1  UNL1        0.0994
      3 N          63.8942   89.6336   12.9444 N.ar    1  UNL1       -0.2126
      4 C          63.8587   90.9260   12.1839 C.ar    1  UNL1        0.2172
      5 N          63.0425   91.0363   10.9302 N.ar    1  UNL1       -0.2126
      6 C          62.2618   89.8542   10.4370 C.ar    1  UNL1        0.0994
      7 N          64.6394   92.1081   12.6771 N.pl3   1  UNL1       -0.2990
      8 H          64.2053   92.7800   13.2509 H       1  UNL1        0.1500
      9 C          66.0815   92.2664   12.2959 C.3     1  UNL1        0.1180
     10 C          66.4843   93.3184   11.3054 C.ar    1  UNL1        0.0167
     11 C          67.2026   92.9287   10.0476 C.ar    1  UNL1        0.0014
     12 C          67.6054   93.9807    9.0572 C.ar    1  UNL1        0.0305
     13 C          67.2899   95.4226    9.3245 C.ar    1  UNL1        0.1383
     14 CL         67.6927   96.4746    8.3340 Cl      1  UNL1       -0.0613
     15 N          66.5715   95.8123   10.5824 N.ar    1  UNL1       -0.2327
     16 C          66.1687   94.7603   11.5727 C.ar    1  UNL1        0.0972
     17 C          61.5166   87.3797   10.7044 C.3     1  UNL1        0.0596
     18 C          63.6201   83.0938   14.1682 C.3     1  UNL1        0.0307
     19 C          63.5584   83.4395   12.7099 C.2     1  UNL1        0.0074
     20 C          64.1703   82.5204   11.6947 C.2     1  UNL1        0.2278
     21 N          64.1086   82.8660   10.2364 N.2     1  UNL1       -0.0314
     22 C          63.4349   84.1308    9.7933 C.2     1  UNL1        0.3716
     23 N          63.2201   84.7311    8.4355 N.2     1  UNL1       -0.0311
     24 C          62.4754   86.0212    8.6115 C.2     1  UNL1        0.2319
     25 C          62.2299   86.2183   10.0781 C.2     1  UNL1        0.0328
     26 C          62.8229   85.0499   10.8085 C.2     1  UNL1        0.0704
     27 C          62.8846   84.7042   12.2668 C.3     1  UNL1        0.0598
@<TRIPOS>BOND
     1    18    19    1
     2    19    20    2
     3    20    21    1
     4    21    22    2
     5    22    23    1
     6    23    24    2
     7    24    25    1
     8    25    17    1
     9    17     1    1
    10     1     2   ar
    11     2     3   ar
    12     3     4   ar
    13     4     7    1
    14     7     9    1
    15     9    10    1
    16    10    11   ar
    17    11    12   ar
    18    12    13   ar
    19    13    14    1
    20    13    15   ar
    21    15    16   ar
    22     4     5   ar
    23     5     6   ar
    24    25    26    2
    25    26    27    1
    26    27    19    1
    27    26    22    1
    28     6     1   ar
    29    16    10   ar
    30     7     8    1
@<TRIPOS>MOLECULE
*****
 27 30 0 0 0
SMALL
GASTEIGER

@<TRIPOS>ATOM
      1 C          63.6197   88.8500   15.5294 C.ar    1  UNL1        0.0207
      2 C          64.2723   88.0145   14.4683 C.ar    1  UNL1        0.0994
      3 N          64.3291   86.5230   14.6172 N.ar    1  UNL1       -0.2126
      4 C          63.7333   85.8669   15.8274 C.ar    1  UNL1        0.2172
      5 N          63.0806   86.7025   16.8886 N.ar    1  UNL1       -0.2126
      6 C          63.0238   88.1939   16.7396 C.ar    1  UNL1        0.0994
      7 N          63.7901   84.3754   15.9764 N.pl3   1  UNL1       -0.2990
      8 H          64.5743   83.9520   16.3947 H       1  UNL1        0.1500
      9 C          62.6520   83.5291   15.4880 C.3     1  UNL1        0.1180
     10 C          62.7614   82.8097   14.1763 C.ar    1  UNL1        0.0167
     11 C          62.4181   81.3521   14.0894 C.ar    1  UNL1        0.0014
     12 C          62.5275   80.6328   12.7777 C.ar    1  UNL1        0.0305
     13 C          62.9801   81.3710   11.5529 C.ar    1  UNL1        0.1383
     14 CL         63.0895   80.6516   10.2412 Cl      1  UNL1       -0.0613
     15 N          63.3234   82.8287   11.6399 N.ar    1  UNL1       -0.2327
     16 C          63.2140   83.5479   12.9515 C.ar    1  UNL1        0.0972
     17 C          63.5629   90.3415   15.3804 C.3     1  UNL1        0.0596
     18 C          69.0308   92.3783   16.2436 C.3     1  UNL1        0.0307
     19 C          68.0146   92.3016   15.1430 C.2     1  UNL1        0.0074
     20 C          68.3294   92.8691   13.7906 C.2     1  UNL1        0.2278
     21 N          67.3132   92.7924   12.6900 N.2     1  UNL1       -0.0314
     22 C          65.9822   92.1483   12.9416 C.2     1  UNL1        0.3716
     23 N          64.7906   91.9279   12.0576 N.2     1  UNL1       -0.0311
     24 C          63.7393   91.2242   12.8636 C.2     1  UNL1        0.2319
     25 C          64.2811   91.0097   14.2457 C.2     1  UNL1        0.0328
     26 C          65.6673   91.5809   14.2939 C.2     1  UNL1        0.0704
     27 C          66.6835   91.6575   15.3946 C.3     1  UNL1        0.0598
@<TRIPOS>BOND
     1    18    19    1
     2    19    20    2
     3    20    21    1
     4    21    22    2
     5    22    23    1
     6    23    24    2
     7    24    25    1
     8    25    17    1
     9    17     1    1
    10     1     2   ar
    11     2     3   ar
    12     3     4   ar
    13     4     7    1
    14     7     9    1
    15     9    10    1
    16    10    11   ar
    17    11    12   ar
    18    12    13   ar
    19    13    14    1
    20    13    15   ar
    21    15    16   ar
    22     4     5   ar
    23     5     6   ar
    24    25    26    2
    25    26    27    1
    26    27    19    1
    27    26    22    1
    28     6     1   ar
    29    16    10   ar
    30     7     8    1
@<TRIPOS>MOLECULE
*****
 27 30 0 0 0
SMALL
GASTEIGER

@<TRIPOS>ATOM
      1 C          63.8550   91.6499   11.0093 C.ar    1  UNL1        0.0207
      2 C          62.9888   91.2248    9.8609 C.ar    1  UNL1        0.0994
      3 N          61.9705   90.1399   10.0508 N.ar    1  UNL1       -0.2126
      4 C          61.8184   89.4801   11.3893 C.ar    1  UNL1        0.2172
      5 N          62.6847   89.9052   12.5378 N.ar    1  UNL1       -0.2126
      6 C          63.7030   90.9901   12.3478 C.ar    1  UNL1        0.0994
      7 N          60.8001   88.3952   11.5793 N.pl3   1  UNL1       -0.2990
      8 H          60.2494   88.3744   12.3950 H       1  UNL1        0.1500
      9 C          60.6210   87.3420   10.5264 C.3     1  UNL1        0.1180
     10 C          61.5975   86.2078   10.4263 C.ar    1  UNL1        0.0167
     11 C          62.2192   85.8677    9.1043 C.ar    1  UNL1        0.0014
     12 C          63.1957   84.7335    9.0043 C.ar    1  UNL1        0.0305
     13 C          63.5506   83.9394   10.2263 C.ar    1  UNL1        0.1383
     14 CL         64.5271   82.8052   10.1263 Cl      1  UNL1       -0.0613
     15 N          62.9289   84.2795   11.5484 N.ar    1  UNL1       -0.2327
     16 C          61.9524   85.4137   11.6484 C.ar    1  UNL1        0.0972
     17 C          64.8733   92.7348   10.8193 C.3     1  UNL1        0.0596
     18 C          66.5107   92.6644   16.4855 C.3     1  UNL1        0.0307
     19 C          67.1280   92.4936   15.1291 C.2     1  UNL1        0.0074
     20 C          68.5965   92.2153   15.0030 C.2     1  UNL1        0.2278
     21 N          69.2138   92.0445   13.6467 N.2     1  UNL1       -0.0314
     22 C          68.3626   92.1520   12.4163 C.2     1  UNL1        0.3716
     23 N          68.6879   92.0312   10.9570 N.2     1  UNL1       -0.0311
     24 C          67.4204   92.2348   10.1811 C.2     1  UNL1        0.2319
     25 C          66.3117   92.4815   11.1609 C.2     1  UNL1        0.0328
     26 C          66.8941   92.4302   12.5424 C.2     1  UNL1        0.0704
     27 C          66.2768   92.6010   13.8987 C.3     1  UNL1        0.0598
@<TRIPOS>BOND
     1    18    19    1
     2    19    20    2
     3    20    21    1
     4    21    22    2
     5    22    23    1
     6    23    24    2
     7    24    25    1
     8    25    17    1
     9    17     1    1
    10     1     2   ar
    11     2     3   ar
    12     3     4   ar
    13     4     7    1
    14     7     9    1
    15     9    10    1
    16    10    11   ar
    17    11    12   ar
    18    12    13   ar
    19    13    14    1
    20    13    15   ar
    21    15    16   ar
    22     4     5   ar
    23     5     6   ar
    24    25    26    2
    25    26    27    1
    26    27    19    1
    27    26    22    1
    28     6     1   ar
    29    16    10   ar
    30     7     8    1
@<TRIPOS>MOLECULE
*****
 27 30 0 0 0
SMALL
GASTEIGER

@<TRIPOS>ATOM
      1 C          64.4554   91.3141   12.6114 C.ar    1  UNL1        0.0207
      2 C          63.8104   91.3936   11.2595 C.ar    1  UNL1        0.0994
      3 N          62.6184   90.5389   10.9457 N.ar    1  UNL1       -0.2126
      4 C          62.0712   89.6047   11.9839 C.ar    1  UNL1        0.2172
      5 N          62.7162   89.5252   13.3358 N.ar    1  UNL1       -0.2126
      6 C          63.9083   90.3798   13.6496 C.ar    1  UNL1        0.0994
      7 N          60.8791   88.7500   11.6701 N.pl3   1  UNL1       -0.2990
      8 H          60.1061   88.7404   12.2797 H       1  UNL1        0.1500
      9 C          60.8648   87.9099   10.4275 C.3     1  UNL1        0.1180
     10 C          61.7026   86.6680   10.3522 C.ar    1  UNL1        0.0167
     11 C          61.9471   85.8521   11.5869 C.ar    1  UNL1        0.0014
     12 C          62.7849   84.6102   11.5116 C.ar    1  UNL1        0.0305
     13 C          63.3783   84.1841   10.2015 C.ar    1  UNL1        0.1383
     14 CL         64.2161   82.9421   10.1262 Cl      1  UNL1       -0.0613
     15 N          63.1338   85.0000    8.9667 N.ar    1  UNL1       -0.2327
     16 C          62.2960   86.2419    9.0421 C.ar    1  UNL1        0.0972
     17 C          65.6475   92.1687   12.9251 C.3     1  UNL1        0.0596
     18 C          64.7126   96.8557    9.4682 C.3     1  UNL1        0.0307
     19 C          65.7278   95.7653    9.6426 C.2     1  UNL1        0.0074
     20 C          66.9287   95.7081    8.7456 C.2     1  UNL1        0.2278
     21 N          67.9438   94.6176    8.9201 N.2     1  UNL1       -0.0314
     22 C          67.7581   93.5844    9.9915 C.2     1  UNL1        0.3716
     23 N          68.5846   92.4007   10.3984 N.2     1  UNL1       -0.0311
     24 C          67.8946   91.7263   11.5469 C.2     1  UNL1        0.2319
     25 C          66.6416   92.4932   11.8498 C.2     1  UNL1        0.0328
     26 C          66.5573   93.6416   10.8884 C.2     1  UNL1        0.0704
     27 C          65.5421   94.7321   10.7140 C.3     1  UNL1        0.0598
@<TRIPOS>BOND
     1    18    19    1
     2    19    20    2
     3    20    21    1
     4    21    22    2
     5    22    23    1
     6    23    24    2
     7    24    25    1
     8    25    17    1
     9    17     1    1
    10     1     2   ar
    11     2     3   ar
    12     3     4   ar
    13     4     7    1
    14     7     9    1
    15     9    10    1
    16    10    11   ar
    17    11    12   ar
    18    12    13   ar
    19    13    14    1
    20    13    15   ar
    21    15    16   ar
    22     4     5   ar
    23     5     6   ar
    24    25    26    2
    25    26    27    1
    26    27    19    1
    27    26    22    1
    28     6     1   ar
    29    16    10   ar
    30     7     8    1
