@<TRIPOS>MOLECULE
*****
 27 30 0 0 0
SMALL
GASTEIGER

@<TRIPOS>ATOM
      1 C          62.9766   84.0613   14.9130 C.2     1  UNL1        0.0919
      2 C          62.9779   84.6061   16.3105 C.2     1  UNL1        0.0183
      3 C          63.3118   86.0482   16.5530 C.2     1  UNL1        0.0511
      4 C          63.6443   86.9456   15.3980 C.2     1  UNL1        0.2322
      5 N          64.0106   88.3985   15.3287 N.2     1  UNL1       -0.0308
      6 C          64.2357   88.7516   13.8883 C.2     1  UNL1        0.3752
      7 N          64.0085   87.5170   13.0674 N.2     1  UNL1       -0.0347
      8 C          63.6430   86.4007   14.0004 C.2     1  UNL1        0.2191
      9 C          63.3091   84.9586   13.7580 C.3     1  UNL1        0.1226
     10 C          64.6205   90.1024   13.3614 C.ar    1  UNL1        0.0884
     11 C          63.9645   90.6394   12.1239 C.ar    1  UNL1        0.0077
     12 C          64.3492   91.9900   11.5970 C.ar    1  UNL1        0.0003
     13 C          65.3899   92.8037   12.3076 C.ar    1  UNL1        0.0000
     14 C          66.0458   92.2667   13.5451 C.ar    1  UNL1        0.0003
     15 C          65.6611   90.9160   14.0720 C.ar    1  UNL1        0.0077
     16 C          65.7746   94.1544   11.7807 C.ar    1  UNL1        0.0000
     17 C          65.7868   94.4071   10.3022 C.ar    1  UNL1        0.0000
     18 C          66.1716   95.7577    9.7753 C.ar    1  UNL1        0.0000
     19 C          66.5441   96.8557   10.7269 C.ar    1  UNL1        0.0000
     20 C          66.5319   96.6031   12.2054 C.ar    1  UNL1        0.0000
     21 C          66.1471   95.2524   12.7323 C.ar    1  UNL1        0.0000
     22 S          62.6427   82.6192   14.6706 S.O2    1  UNL1        0.0054
     23 O          61.2177   82.9958   14.3923 O.2     1  UNL1       -0.1689
     24 O          64.0678   82.2425   14.9488 O.2     1  UNL1       -0.1689
     25 C          62.3089   81.1770   14.4281 C.3     1  UNL1        0.1556
     26 C          62.8298   81.4629   11.8989 C.3     1  UNL1        0.0019
     27 C          62.5138   80.5781   13.0682 C.3     1  UNL1        0.0257
@<TRIPOS>BOND
     1    26    27    1
     2    27    25    1
     3    25    22    1
     4    22    23    2
     5    22    24    2
     6    22     1    1
     7     1     2    2
     8     2     3    1
     9     3     4    2
    10     4     5    1
    11     5     6    2
    12     6    10    1
    13    10    11   ar
    14    11    12   ar
    15    12    13   ar
    16    13    16    1
    17    16    17   ar
    18    17    18   ar
    19    18    19   ar
    20    19    20   ar
    21    20    21   ar
    22    13    14   ar
    23    14    15   ar
    24     6     7    1
    25     7     8    2
    26     8     9    1
    27     9     1    1
    28     8     4    1
    29    15    10   ar
    30    21    16   ar
@<TRIPOS>MOLECULE
*****
 27 30 0 0 0
SMALL
GASTEIGER

@<TRIPOS>ATOM
      1 C          65.7175   93.5624   12.7271 C.2     1  UNL1        0.0919
      2 C          66.0857   93.4406   14.1760 C.2     1  UNL1        0.0183
      3 C          65.8749   92.1422   14.8969 C.2     1  UNL1        0.0511
      4 C          65.2959   90.9655   14.1687 C.2     1  UNL1        0.2322
      5 N          64.9760   89.5688   14.6124 N.2     1  UNL1       -0.0308
      6 C          64.4100   88.8274   13.4377 C.2     1  UNL1        0.3752
      7 N          64.3802   89.7659   12.2679 N.2     1  UNL1       -0.0347
      8 C          64.9277   91.0874   12.7198 C.2     1  UNL1        0.2191
      9 C          65.1385   92.3858   11.9989 C.3     1  UNL1        0.1226
     10 C          63.9540   87.3984   13.4335 C.ar    1  UNL1        0.0884
     11 C          64.3297   86.4879   14.5648 C.ar    1  UNL1        0.0077
     12 C          63.8737   85.0589   14.5606 C.ar    1  UNL1        0.0003
     13 C          63.0420   84.5404   13.4251 C.ar    1  UNL1        0.0000
     14 C          62.6663   85.4509   12.2938 C.ar    1  UNL1        0.0003
     15 C          63.1223   86.8799   12.2980 C.ar    1  UNL1        0.0077
     16 C          62.5860   83.1114   13.4209 C.ar    1  UNL1        0.0000
     17 C          61.6863   82.6081   14.5105 C.ar    1  UNL1        0.0000
     18 C          61.2303   81.1791   14.5063 C.ar    1  UNL1        0.0000
     19 C          61.6739   80.2535   13.4126 C.ar    1  UNL1        0.0000
     20 C          62.5736   80.7568   12.3230 C.ar    1  UNL1        0.0000
     21 C          63.0296   82.1858   12.3272 C.ar    1  UNL1        0.0000
     22 S          65.9284   94.8609   12.0062 S.O2    1  UNL1        0.0054
     23 O          65.4480   94.2316   10.7322 O.2     1  UNL1       -0.1689
     24 O          66.4087   95.4902   13.2803 O.2     1  UNL1       -0.1689
     25 C          66.1392   96.1593   11.2854 C.3     1  UNL1        0.1556
     26 C          67.2944   96.8188    9.0537 C.3     1  UNL1        0.0019
     27 C          66.1448   96.1923    9.7858 C.3     1  UNL1        0.0257
@<TRIPOS>BOND
     1    26    27    1
     2    27    25    1
     3    25    22    1
     4    22    23    2
     5    22    24    2
     6    22     1    1
     7     1     2    2
     8     2     3    1
     9     3     4    2
    10     4     5    1
    11     5     6    2
    12     6    10    1
    13    10    11   ar
    14    11    12   ar
    15    12    13   ar
    16    13    16    1
    17    16    17   ar
    18    17    18   ar
    19    18    19   ar
    20    19    20   ar
    21    20    21   ar
    22    13    14   ar
    23    14    15   ar
    24     6     7    1
    25     7     8    2
    26     8     9    1
    27     9     1    1
    28     8     4    1
    29    15    10   ar
    30    21    16   ar
@<TRIPOS>MOLECULE
*****
 27 30 0 0 0
SMALL
GASTEIGER

@<TRIPOS>ATOM
      1 C          60.9258   94.3756    0.7781 C.2     1  UNL1        0.0919
      2 C          60.9067   95.8415    1.0954 C.2     1  UNL1        0.0183
      3 C          59.8178   96.7139    0.5448 C.2     1  UNL1        0.0511
      4 C          58.7479   96.1205   -0.3230 C.2     1  UNL1        0.2322
      5 N          57.5567   96.7266   -1.0038 N.2     1  UNL1       -0.0308
      6 C          56.8394   95.6353   -1.7418 C.2     1  UNL1        0.3752
      7 N          57.5874   94.3547   -1.5171 N.2     1  UNL1       -0.0347
      8 C          58.7670   94.6546   -0.6402 C.2     1  UNL1        0.2191
      9 C          59.8559   93.7821   -0.0897 C.3     1  UNL1        0.1226
     10 C          55.5930   95.7964   -2.5607 C.ar    1  UNL1        0.0884
     11 C          55.6838   95.8838   -4.0554 C.ar    1  UNL1        0.0077
     12 C          54.4374   96.0449   -4.8743 C.ar    1  UNL1        0.0003
     13 C          53.1003   96.1186   -4.1985 C.ar    1  UNL1        0.0000
     14 C          53.0096   96.0311   -2.7038 C.ar    1  UNL1        0.0003
     15 C          54.2559   95.8700   -1.8849 C.ar    1  UNL1        0.0077
     16 C          51.8539   96.2797   -5.0174 C.ar    1  UNL1        0.0000
     17 C          51.9482   96.4123   -6.5085 C.ar    1  UNL1        0.0000
     18 C          50.7018   96.5734   -7.3274 C.ar    1  UNL1        0.0000
     19 C          49.3612   96.6018   -6.6552 C.ar    1  UNL1        0.0000
     20 C          49.2670   96.4692   -5.1640 C.ar    1  UNL1        0.0000
     21 C          50.5133   96.3081   -4.3451 C.ar    1  UNL1        0.0000
     22 S          62.0147   93.5031    1.3287 S.O2    1  UNL1        0.0054
     23 O          61.0383   92.8899    2.2881 O.2     1  UNL1       -0.1689
     24 O          62.9911   94.1163    0.3692 O.2     1  UNL1       -0.1689
     25 C          63.1036   92.6307    1.8792 C.3     1  UNL1        0.1556
     26 C          63.6362   90.5232    3.3023 C.3     1  UNL1        0.0019
     27 C          62.8438   91.7783    3.0858 C.3     1  UNL1        0.0257
@<TRIPOS>BOND
     1    26    27    1
     2    27    25    1
     3    25    22    1
     4    22    23    2
     5    22    24    2
     6    22     1    1
     7     1     2    2
     8     2     3    1
     9     3     4    2
    10     4     5    1
    11     5     6    2
    12     6    10    1
    13    10    11   ar
    14    11    12   ar
    15    12    13   ar
    16    13    16    1
    17    16    17   ar
    18    17    18   ar
    19    18    19   ar
    20    19    20   ar
    21    20    21   ar
    22    13    14   ar
    23    14    15   ar
    24     6     7    1
    25     7     8    2
    26     8     9    1
    27     9     1    1
    28     8     4    1
    29    15    10   ar
    30    21    16   ar
@<TRIPOS>MOLECULE
*****
 27 30 0 0 0
SMALL
GASTEIGER

@<TRIPOS>ATOM
      1 C          59.5549   95.6998   -1.6807 C.2     1  UNL1        0.0919
      2 C          59.9259   96.8159   -0.7499 C.2     1  UNL1        0.0183
      3 C          60.1043   96.5434    0.7143 C.2     1  UNL1        0.0511
      4 C          59.9117   95.1547    1.2477 C.2     1  UNL1        0.2322
      5 N          60.0186   94.5875    2.6322 N.2     1  UNL1       -0.0308
      6 C          59.7137   93.1207    2.5570 C.2     1  UNL1        0.3752
      7 N          59.4184   92.7814    1.1260 N.2     1  UNL1       -0.0347
      8 C          59.5408   94.0386    0.3168 C.2     1  UNL1        0.2191
      9 C          59.3624   94.3111   -1.1474 C.3     1  UNL1        0.1226
     10 C          59.7055   92.1616    3.7103 C.ar    1  UNL1        0.0884
     11 C          60.9883   91.5411    4.1788 C.ar    1  UNL1        0.0077
     12 C          60.9802   90.5821    5.3321 C.ar    1  UNL1        0.0003
     13 C          59.6894   90.2435    6.0168 C.ar    1  UNL1        0.0000
     14 C          58.4066   90.8639    5.5483 C.ar    1  UNL1        0.0003
     15 C          58.4147   91.8230    4.3950 C.ar    1  UNL1        0.0077
     16 C          59.6812   89.2844    7.1702 C.ar    1  UNL1        0.0000
     17 C          59.0984   87.9126    7.0008 C.ar    1  UNL1        0.0000
     18 C          59.0902   86.9535    8.1540 C.ar    1  UNL1        0.0000
     19 C          59.6649   87.3662    9.4767 C.ar    1  UNL1        0.0000
     20 C          60.2477   88.7379    9.6461 C.ar    1  UNL1        0.0000
     21 C          60.2559   89.6970    8.4928 C.ar    1  UNL1        0.0000
     22 S          59.3765   95.9723   -3.1449 S.O2    1  UNL1        0.0054
     23 O          57.9838   96.4643   -2.8836 O.2     1  UNL1       -0.1689
     24 O          60.7692   95.4803   -3.4062 O.2     1  UNL1       -0.1689
     25 C          59.1981   96.2448   -4.6091 C.3     1  UNL1        0.1556
     26 C          58.3055   93.8834   -5.2232 C.3     1  UNL1        0.0019
     27 C          59.1021   95.1039   -5.5781 C.3     1  UNL1        0.0257
@<TRIPOS>BOND
     1    26    27    1
     2    27    25    1
     3    25    22    1
     4    22    23    2
     5    22    24    2
     6    22     1    1
     7     1     2    2
     8     2     3    1
     9     3     4    2
    10     4     5    1
    11     5     6    2
    12     6    10    1
    13    10    11   ar
    14    11    12   ar
    15    12    13   ar
    16    13    16    1
    17    16    17   ar
    18    17    18   ar
    19    18    19   ar
    20    19    20   ar
    21    20    21   ar
    22    13    14   ar
    23    14    15   ar
    24     6     7    1
    25     7     8    2
    26     8     9    1
    27     9     1    1
    28     8     4    1
    29    15    10   ar
    30    21    16   ar
@<TRIPOS>MOLECULE
*****
 27 30 0 0 0
SMALL
GASTEIGER

@<TRIPOS>ATOM
      1 C          72.0485   72.4840   16.9434 C.2     1  UNL1        0.0919
      2 C          73.1374   73.2200   17.6663 C.2     1  UNL1        0.0183
      3 C          73.6315   74.5347   17.1396 C.2     1  UNL1        0.0511
      4 C          73.0367   75.1135   15.8902 C.2     1  UNL1        0.2322
      5 N          73.3178   76.3806   15.1382 N.2     1  UNL1       -0.0308
      6 C          72.4026   76.4277   13.9507 C.2     1  UNL1        0.3752
      7 N          71.5559   75.1897   13.9686 N.2     1  UNL1       -0.0347
      8 C          71.9478   74.3774   15.1673 C.2     1  UNL1        0.2191
      9 C          71.4537   73.0627   15.6940 C.3     1  UNL1        0.1226
     10 C          72.3445   77.5209   12.9252 C.ar    1  UNL1        0.0884
     11 C          72.6846   78.9300   13.3110 C.ar    1  UNL1        0.0077
     12 C          72.6265   80.0232   12.2856 C.ar    1  UNL1        0.0003
     13 C          72.2282   79.7073   10.8744 C.ar    1  UNL1        0.0000
     14 C          71.8881   78.2983   10.4886 C.ar    1  UNL1        0.0003
     15 C          71.9462   77.2051   11.5140 C.ar    1  UNL1        0.0077
     16 C          72.1701   80.8006    9.8489 C.ar    1  UNL1        0.0000
     17 C          72.3429   82.2308   10.2668 C.ar    1  UNL1        0.0000
     18 C          72.2848   83.3240    9.2414 C.ar    1  UNL1        0.0000
     19 C          72.0538   82.9870    7.7982 C.ar    1  UNL1        0.0000
     20 C          71.8809   81.5568    7.3803 C.ar    1  UNL1        0.0000
     21 C          71.9391   80.4636    8.4057 C.ar    1  UNL1        0.0000
     22 S          71.5544   71.1693   17.4701 S.O2    1  UNL1        0.0054
     23 O          72.9241   70.5838   17.2936 O.2     1  UNL1       -0.1689
     24 O          70.1847   71.7547   17.6466 O.2     1  UNL1       -0.1689
     25 C          71.0603   69.8545   17.9967 C.3     1  UNL1        0.1556
     26 C          71.4095   68.4042   15.8696 C.3     1  UNL1        0.0019
     27 C          71.5084   68.5741   17.3567 C.3     1  UNL1        0.0257
@<TRIPOS>BOND
     1    26    27    1
     2    27    25    1
     3    25    22    1
     4    22    23    2
     5    22    24    2
     6    22     1    1
     7     1     2    2
     8     2     3    1
     9     3     4    2
    10     4     5    1
    11     5     6    2
    12     6    10    1
    13    10    11   ar
    14    11    12   ar
    15    12    13   ar
    16    13    16    1
    17    16    17   ar
    18    17    18   ar
    19    18    19   ar
    20    19    20   ar
    21    20    21   ar
    22    13    14   ar
    23    14    15   ar
    24     6     7    1
    25     7     8    2
    26     8     9    1
    27     9     1    1
    28     8     4    1
    29    15    10   ar
    30    21    16   ar
@<TRIPOS>MOLECULE
*****
 27 30 0 0 0
SMALL
GASTEIGER

@<TRIPOS>ATOM
      1 C          59.5376   89.6797    6.7144 C.2     1  UNL1        0.0919
      2 C          58.2774   90.3958    6.3284 C.2     1  UNL1        0.0183
      3 C          58.2869   91.3674    5.1856 C.2     1  UNL1        0.0511
      4 C          59.5565   91.6229    4.4290 C.2     1  UNL1        0.2322
      5 N          59.8695   92.5180    3.2667 N.2     1  UNL1       -0.0308
      6 C          61.3232   92.3552    2.9345 C.2     1  UNL1        0.3752
      7 N          61.9086   91.3594    3.8914 N.2     1  UNL1       -0.0347
      8 C          60.8167   90.9069    4.8150 C.2     1  UNL1        0.2191
      9 C          60.8072   89.9352    5.9578 C.3     1  UNL1        0.1226
     10 C          62.0617   93.0637    1.8378 C.ar    1  UNL1        0.0884
     11 C          61.4132   93.2550    0.4988 C.ar    1  UNL1        0.0077
     12 C          62.1516   93.9635   -0.5978 C.ar    1  UNL1        0.0003
     13 C          63.5386   94.4807   -0.3555 C.ar    1  UNL1        0.0000
     14 C          64.1871   94.2894    0.9835 C.ar    1  UNL1        0.0003
     15 C          63.4487   93.5809    2.0801 C.ar    1  UNL1        0.0077
     16 C          64.2772   95.1893   -1.4522 C.ar    1  UNL1        0.0000
     17 C          63.9117   94.9396   -2.8854 C.ar    1  UNL1        0.0000
     18 C          64.6502   95.6481   -3.9820 C.ar    1  UNL1        0.0000
     19 C          65.7541   96.6062   -3.6454 C.ar    1  UNL1        0.0000
     20 C          66.1195   96.8559   -2.2122 C.ar    1  UNL1        0.0000
     21 C          65.3811   96.1474   -1.1156 C.ar    1  UNL1        0.0000
     22 S          59.5281   88.7081    7.8572 S.O2    1  UNL1        0.0054
     23 O          58.9135   87.6682    6.9679 O.2     1  UNL1       -0.1689
     24 O          60.1427   89.7480    8.7465 O.2     1  UNL1       -0.1689
     25 C          59.5186   87.7364    8.9999 C.3     1  UNL1        0.1556
     26 C          61.8532   86.5976    8.9458 C.3     1  UNL1        0.0019
     27 C          60.3568   86.4942    8.9351 C.3     1  UNL1        0.0257
@<TRIPOS>BOND
     1    26    27    1
     2    27    25    1
     3    25    22    1
     4    22    23    2
     5    22    24    2
     6    22     1    1
     7     1     2    2
     8     2     3    1
     9     3     4    2
    10     4     5    1
    11     5     6    2
    12     6    10    1
    13    10    11   ar
    14    11    12   ar
    15    12    13   ar
    16    13    16    1
    17    16    17   ar
    18    17    18   ar
    19    18    19   ar
    20    19    20   ar
    21    20    21   ar
    22    13    14   ar
    23    14    15   ar
    24     6     7    1
    25     7     8    2
    26     8     9    1
    27     9     1    1
    28     8     4    1
    29    15    10   ar
    30    21    16   ar
@<TRIPOS>MOLECULE
*****
 27 30 0 0 0
SMALL
GASTEIGER

@<TRIPOS>ATOM
      1 C          71.7604   71.2129   15.9692 C.2     1  UNL1        0.0919
      2 C          70.7919   72.0092   16.7924 C.2     1  UNL1        0.0183
      3 C          70.4545   73.4172   16.4001 C.2     1  UNL1        0.0511
      4 C          71.0857   74.0288   15.1846 C.2     1  UNL1        0.2322
      5 N          70.9477   75.3838   14.5562 N.2     1  UNL1       -0.0308
      6 C          71.8311   75.4249   13.3446 C.2     1  UNL1        0.3752
      7 N          72.5150   74.0954   13.2242 N.2     1  UNL1       -0.0347
      8 C          72.0543   73.2325   14.3615 C.2     1  UNL1        0.2191
      9 C          72.3917   71.8246   14.7537 C.3     1  UNL1        0.1226
     10 C          72.0007   76.5910   12.4163 C.ar    1  UNL1        0.0884
     11 C          73.3319   76.8527   11.7764 C.ar    1  UNL1        0.0077
     12 C          73.5016   78.0187   10.8482 C.ar    1  UNL1        0.0003
     13 C          72.3401   78.9229   10.5598 C.ar    1  UNL1        0.0000
     14 C          71.0089   78.6612   11.1997 C.ar    1  UNL1        0.0003
     15 C          70.8392   77.4952   12.1280 C.ar    1  UNL1        0.0077
     16 C          72.5097   80.0890    9.6316 C.ar    1  UNL1        0.0000
     17 C          72.2490   81.4823   10.1222 C.ar    1  UNL1        0.0000
     18 C          72.4186   82.6483    9.1940 C.ar    1  UNL1        0.0000
     19 C          72.8490   82.4210    7.7752 C.ar    1  UNL1        0.0000
     20 C          73.1097   81.0277    7.2846 C.ar    1  UNL1        0.0000
     21 C          72.9401   79.8617    8.2127 C.ar    1  UNL1        0.0000
     22 S          72.0978   69.8050   16.3615 S.O2    1  UNL1        0.0054
     23 O          71.1162   69.2884   15.3517 O.2     1  UNL1       -0.1689
     24 O          73.0794   70.3216   17.3713 O.2     1  UNL1       -0.1689
     25 C          72.4352   68.3971   16.7538 C.3     1  UNL1        0.1556
     26 C          70.5840   68.1196   18.5555 C.3     1  UNL1        0.0019
     27 C          71.4118   67.5452   17.4443 C.3     1  UNL1        0.0257
@<TRIPOS>BOND
     1    26    27    1
     2    27    25    1
     3    25    22    1
     4    22    23    2
     5    22    24    2
     6    22     1    1
     7     1     2    2
     8     2     3    1
     9     3     4    2
    10     4     5    1
    11     5     6    2
    12     6    10    1
    13    10    11   ar
    14    11    12   ar
    15    12    13   ar
    16    13    16    1
    17    16    17   ar
    18    17    18   ar
    19    18    19   ar
    20    19    20   ar
    21    20    21   ar
    22    13    14   ar
    23    14    15   ar
    24     6     7    1
    25     7     8    2
    26     8     9    1
    27     9     1    1
    28     8     4    1
    29    15    10   ar
    30    21    16   ar
@<TRIPOS>MOLECULE
*****
 27 30 0 0 0
SMALL
GASTEIGER

@<TRIPOS>ATOM
      1 C          59.8820   94.7219   -0.0743 C.2     1  UNL1        0.0919
      2 C          59.6491   96.0745    0.5308 C.2     1  UNL1        0.0183
      3 C          58.4202   96.8556    0.1709 C.2     1  UNL1        0.0511
      4 C          57.4242   96.2842   -0.7942 C.2     1  UNL1        0.2322
      5 N          56.1305   96.8173   -1.3348 N.2     1  UNL1       -0.0308
      6 C          55.5639   95.7942   -2.2741 C.2     1  UNL1        0.3752
      7 N          56.5074   94.6287   -2.3140 N.2     1  UNL1       -0.0347
      8 C          57.6571   94.9316   -1.3994 C.2     1  UNL1        0.2191
      9 C          58.8860   94.1505   -1.0394 C.3     1  UNL1        0.1226
     10 C          54.2793   95.9153   -3.0392 C.ar    1  UNL1        0.0884
     11 C          52.9779   96.0423   -2.3043 C.ar    1  UNL1        0.0077
     12 C          51.6933   96.1634   -3.0692 C.ar    1  UNL1        0.0003
     13 C          51.7102   96.1575   -4.5691 C.ar    1  UNL1        0.0000
     14 C          53.0117   96.0305   -5.3040 C.ar    1  UNL1        0.0003
     15 C          54.2962   95.9094   -4.5390 C.ar    1  UNL1        0.0077
     16 C          50.4256   96.2786   -5.3341 C.ar    1  UNL1        0.0000
     17 C          50.3887   95.9434   -6.7957 C.ar    1  UNL1        0.0000
     18 C          49.1042   96.0645   -7.5608 C.ar    1  UNL1        0.0000
     19 C          47.8566   96.5208   -6.8642 C.ar    1  UNL1        0.0000
     20 C          47.8935   96.8559   -5.4026 C.ar    1  UNL1        0.0000
     21 C          49.1780   96.7349   -4.6376 C.ar    1  UNL1        0.0000
     22 S          61.1109   93.9407    0.2857 S.O2    1  UNL1        0.0054
     23 O          60.6212   93.8213    1.6984 O.2     1  UNL1       -0.1689
     24 O          61.6006   94.0601   -1.1271 O.2     1  UNL1       -0.1689
     25 C          62.3398   93.1596    0.6456 C.3     1  UNL1        0.1556
     26 C          64.8841   93.1203    1.1701 C.3     1  UNL1        0.0019
     27 C          63.5957   93.8777    1.0417 C.3     1  UNL1        0.0257
@<TRIPOS>BOND
     1    26    27    1
     2    27    25    1
     3    25    22    1
     4    22    23    2
     5    22    24    2
     6    22     1    1
     7     1     2    2
     8     2     3    1
     9     3     4    2
    10     4     5    1
    11     5     6    2
    12     6    10    1
    13    10    11   ar
    14    11    12   ar
    15    12    13   ar
    16    13    16    1
    17    16    17   ar
    18    17    18   ar
    19    18    19   ar
    20    19    20   ar
    21    20    21   ar
    22    13    14   ar
    23    14    15   ar
    24     6     7    1
    25     7     8    2
    26     8     9    1
    27     9     1    1
    28     8     4    1
    29    15    10   ar
    30    21    16   ar
@<TRIPOS>MOLECULE
*****
 27 30 0 0 0
SMALL
GASTEIGER

@<TRIPOS>ATOM
      1 C          72.0189   74.8439   15.1033 C.2     1  UNL1        0.0919
      2 C          73.0214   75.7700   15.7257 C.2     1  UNL1        0.0183
      3 C          73.5592   76.9299   14.9412 C.2     1  UNL1        0.0511
      4 C          73.0945   77.1637   13.5344 C.2     1  UNL1        0.2322
      5 N          73.4443   78.2151   12.5234 N.2     1  UNL1       -0.0308
      6 C          72.6581   77.9389   11.2762 C.2     1  UNL1        0.3752
      7 N          71.8223   76.7167   11.5163 N.2     1  UNL1       -0.0347
      8 C          72.0920   76.2376   12.9120 C.2     1  UNL1        0.2191
      9 C          71.5542   75.0777   13.6965 C.3     1  UNL1        0.1226
     10 C          72.7003   78.7436   10.0110 C.ar    1  UNL1        0.0884
     11 C          71.8577   79.9776    9.8785 C.ar    1  UNL1        0.0077
     12 C          71.8999   80.7823    8.6134 C.ar    1  UNL1        0.0003
     13 C          72.7846   80.3530    7.4807 C.ar    1  UNL1        0.0000
     14 C          73.6271   79.1191    7.6131 C.ar    1  UNL1        0.0003
     15 C          73.5850   78.3144    8.8783 C.ar    1  UNL1        0.0077
     16 C          72.8268   81.1578    6.2155 C.ar    1  UNL1        0.0000
     17 C          72.1063   82.4711    6.1376 C.ar    1  UNL1        0.0000
     18 C          72.1485   83.2758    4.8725 C.ar    1  UNL1        0.0000
     19 C          72.9111   82.7672    3.6852 C.ar    1  UNL1        0.0000
     20 C          73.6316   81.4539    3.7631 C.ar    1  UNL1        0.0000
     21 C          73.5894   80.6491    5.0282 C.ar    1  UNL1        0.0000
     22 S          71.4811   73.6840   15.8878 S.O2    1  UNL1        0.0054
     23 O          72.4780   73.9571   16.9749 O.2     1  UNL1       -0.1689
     24 O          70.4843   73.4109   14.8007 O.2     1  UNL1       -0.1689
     25 C          70.9434   72.5241   16.6723 C.3     1  UNL1        0.1556
     26 C          71.9056   70.1165   16.8392 C.3     1  UNL1        0.0019
     27 C          71.8869   71.5430   17.3026 C.3     1  UNL1        0.0257
@<TRIPOS>BOND
     1    26    27    1
     2    27    25    1
     3    25    22    1
     4    22    23    2
     5    22    24    2
     6    22     1    1
     7     1     2    2
     8     2     3    1
     9     3     4    2
    10     4     5    1
    11     5     6    2
    12     6    10    1
    13    10    11   ar
    14    11    12   ar
    15    12    13   ar
    16    13    16    1
    17    16    17   ar
    18    17    18   ar
    19    18    19   ar
    20    19    20   ar
    21    20    21   ar
    22    13    14   ar
    23    14    15   ar
    24     6     7    1
    25     7     8    2
    26     8     9    1
    27     9     1    1
    28     8     4    1
    29    15    10   ar
    30    21    16   ar
