@<TRIPOS>MOLECULE
*****
 40 45 0 0 0
SMALL
GASTEIGER

@<TRIPOS>ATOM
      1 C          64.6697   91.2326   14.1569 C.ar    1  UNL1       -0.0201
      2 C          64.6442   89.9667   14.9611 C.ar    1  UNL1       -0.0027
      3 C          64.0804   88.7108   14.3654 C.ar    1  UNL1        0.0173
      4 C          63.5419   88.7209   12.9653 C.ar    1  UNL1        0.0664
      5 C          63.5674   89.9868   12.1612 C.ar    1  UNL1        0.0173
      6 C          64.1313   91.2427   12.7569 C.ar    1  UNL1       -0.0027
      7 N          62.9781   87.4651   12.3696 N.ar    1  UNL1       -0.2787
      8 C          61.9392   87.3905   11.2901 C.ar    1  UNL1        0.1325
      9 N          61.6732   85.9426   11.0021 N.ar    1  UNL1       -0.2287
     10 C          62.5476   85.1224   11.9036 C.ar    1  UNL1        0.1170
     11 C          62.7137   83.6403   12.0641 C.ar    1  UNL1        0.0238
     12 C          63.6862   83.0992   13.0697 C.ar    1  UNL1        0.0223
     13 C          64.4926   84.0401   13.9148 C.ar    1  UNL1        0.1006
     14 N          64.3266   85.5222   13.7544 N.ar    1  UNL1       -0.2248
     15 C          63.3541   86.0633   12.7487 C.ar    1  UNL1        0.1663
     16 C          61.2819   88.5586   10.6168 C.3     1  UNL1        0.1381
     17 C          61.0618   89.6946    9.6624 C.3     1  UNL1        0.0161
     18 C          62.3128   88.8718    9.5732 C.3     1  UNL1        0.0161
     19 C          60.0226   88.6512   11.4266 C.3     1  UNL1        0.4034
     20 F          58.7635   88.7439   12.2364 F       1  UNL1       -0.1696
     21 F          59.3804   87.6208   10.5458 F       1  UNL1       -0.1696
     22 F          60.6648   89.6817   12.3074 F       1  UNL1       -0.1696
     23 C          65.2336   92.4884   14.7527 C.3     1  UNL1        0.0516
     24 CA         66.5030   93.0728   14.2077 C.3     1  UNL1        0.1102
     25 O          68.0307   91.2460   15.2464 O.co2   1  UNL1       -0.5475
     26 C          67.8260   92.6565   14.7791 C.2     1  UNL1        0.0684
     27 OXT        68.9443   93.6508   14.8831 O.co2   1  UNL1       -0.5475
     28 N          66.4495   94.0733   13.0915 N.pl3   1  UNL1       -0.3320
     29 H          66.0723   94.9687   13.2507 H       1  UNL1        0.1468
     30 C          66.9706   93.7098   11.7328 C.2     1  UNL1        0.0372
     31 C          67.7590   92.5640   11.1708 C.2     1  UNL1        0.0788
     32 BR         68.3528   91.3073   11.7348 Br      1  UNL1       -0.0451
     33 C          67.7077   93.1955    9.8112 C.2     1  UNL1        0.1842
     34 O          68.2289   92.8319    8.4525 O.2     1  UNL1       -0.2904
     35 C          66.9193   94.3413   10.3732 C.3     1  UNL1        0.0874
     36 C          67.0738   94.6547    8.9144 C.3     1  UNL1        0.0126
     37 C          66.4800   95.9114    8.3504 C.3     1  UNL1        0.0008
     38 C          65.7317   96.8547    9.2450 C.3     1  UNL1        0.0000
     39 C          65.5773   96.5412   10.7038 C.3     1  UNL1        0.0008
     40 C          66.1711   95.2845   11.2678 C.3     1  UNL1        0.0126
@<TRIPOS>UNITY_ATOM_ATTR
25 1
charge -1
@<TRIPOS>BOND
     1    25    26   ar
     2    26    27   ar
     3    26    24    1
     4    24    23    1
     5    23     1    1
     6     1     2   ar
     7     2     3   ar
     8     3     4   ar
     9     4     7    1
    10     7     8   ar
    11     8    16    1
    12    16    19    1
    13    19    20    1
    14    19    21    1
    15    19    22    1
    16    16    17    1
    17    17    18    1
    18     8     9   ar
    19     9    10   ar
    20    10    11   ar
    21    11    12   ar
    22    12    13   ar
    23    13    14   ar
    24    14    15   ar
    25     4     5   ar
    26     5     6   ar
    27    24    28    1
    28    28    30    1
    29    30    31    2
    30    31    32    1
    31    31    33    1
    32    33    34    2
    33    33    35    1
    34    35    36    1
    35    36    37    1
    36    37    38    1
    37    38    39    1
    38    39    40    1
    39     6     1   ar
    40    35    30    1
    41    15     7   ar
    42    40    35    1
    43    18    16    1
    44    15    10   ar
    45    28    29    1
@<TRIPOS>MOLECULE
*****
 40 45 0 0 0
SMALL
GASTEIGER

@<TRIPOS>ATOM
      1 C          62.2634   90.3306   10.7315 C.ar    1  UNL1       -0.0201
      2 C          63.0413   91.3759    9.9884 C.ar    1  UNL1       -0.0027
      3 C          64.2372   92.0168   10.6279 C.ar    1  UNL1        0.0173
      4 C          64.6553   91.6123   12.0106 C.ar    1  UNL1        0.0664
      5 C          63.8775   90.5670   12.7536 C.ar    1  UNL1        0.0173
      6 C          62.6816   89.9261   12.1141 C.ar    1  UNL1       -0.0027
      7 N          65.8513   92.2532   12.6501 N.ar    1  UNL1       -0.2787
      8 C          67.0083   92.8779   11.9283 C.ar    1  UNL1        0.1325
      9 N          67.9723   93.3927   12.9558 N.ar    1  UNL1       -0.2287
     10 C          67.4110   93.0862   14.3127 C.ar    1  UNL1        0.1170
     11 C          67.9241   93.3574   15.6958 C.ar    1  UNL1        0.0238
     12 C          67.1264   92.9244   16.8900 C.ar    1  UNL1        0.0223
     13 C          65.8156   92.2202   16.7010 C.ar    1  UNL1        0.1006
     14 N          65.3024   91.9490   15.3179 N.ar    1  UNL1       -0.2248
     15 C          66.1001   92.3820   14.1237 C.ar    1  UNL1        0.1663
     16 C          67.1726   92.9713   10.4403 C.3     1  UNL1        0.1381
     17 C          67.5857   92.6161    9.0427 C.3     1  UNL1        0.0161
     18 C          67.9462   91.7120   10.1840 C.3     1  UNL1        0.0161
     19 C          66.4562   94.2631   10.1797 C.3     1  UNL1        0.4034
     20 F          65.7397   95.5549    9.9190 F       1  UNL1       -0.1696
     21 F          66.2327   94.4363   11.6528 F       1  UNL1       -0.1696
     22 F          66.6796   94.0899    8.7066 F       1  UNL1       -0.1696
     23 C          61.0675   89.6897   10.0920 C.3     1  UNL1        0.0516
     24 CA         60.0951   88.9132   10.9295 C.3     1  UNL1        0.1102
     25 O          58.4650   88.9172   12.9527 O.co2   1  UNL1       -0.5475
     26 C          59.1198   89.6361   11.8106 C.2     1  UNL1        0.0684
     27 OXT        58.7993   91.0780   11.5494 O.co2   1  UNL1       -0.5475
     28 N          60.0980   87.4138   10.8860 N.pl3   1  UNL1       -0.3320
     29 H          59.7229   86.8988   11.6366 H       1  UNL1        0.1468
     30 C          60.6724   86.6991    9.6989 C.2     1  UNL1        0.0372
     31 C          60.4101   86.7151    8.2221 C.2     1  UNL1        0.0788
     32 BR         59.4647   87.4525    7.3207 Br      1  UNL1       -0.0451
     33 C          61.4847   85.6883    8.0201 C.2     1  UNL1        0.1842
     34 O          62.0591   84.9736    6.8330 O.2     1  UNL1       -0.2904
     35 C          61.7470   85.6723    9.4969 C.3     1  UNL1        0.0874
     36 C          62.7171   84.6846    8.9195 C.3     1  UNL1        0.0126
     37 C          63.6625   83.9472    9.8209 C.3     1  UNL1        0.0008
     38 C          63.6378   84.1974   11.2997 C.3     1  UNL1        0.0000
     39 C          62.6676   85.1851   11.8771 C.3     1  UNL1        0.0008
     40 C          61.7223   85.9225   10.9757 C.3     1  UNL1        0.0126
@<TRIPOS>UNITY_ATOM_ATTR
25 1
charge -1
@<TRIPOS>BOND
     1    25    26   ar
     2    26    27   ar
     3    26    24    1
     4    24    23    1
     5    23     1    1
     6     1     2   ar
     7     2     3   ar
     8     3     4   ar
     9     4     7    1
    10     7     8   ar
    11     8    16    1
    12    16    19    1
    13    19    20    1
    14    19    21    1
    15    19    22    1
    16    16    17    1
    17    17    18    1
    18     8     9   ar
    19     9    10   ar
    20    10    11   ar
    21    11    12   ar
    22    12    13   ar
    23    13    14   ar
    24    14    15   ar
    25     4     5   ar
    26     5     6   ar
    27    24    28    1
    28    28    30    1
    29    30    31    2
    30    31    32    1
    31    31    33    1
    32    33    34    2
    33    33    35    1
    34    35    36    1
    35    36    37    1
    36    37    38    1
    37    38    39    1
    38    39    40    1
    39     6     1   ar
    40    35    30    1
    41    15     7   ar
    42    40    35    1
    43    18    16    1
    44    15    10   ar
    45    28    29    1
@<TRIPOS>MOLECULE
*****
 40 45 0 0 0
SMALL
GASTEIGER

@<TRIPOS>ATOM
      1 C          63.8128   90.8509   12.3142 C.ar    1  UNL1       -0.0201
      2 C          64.1922   89.8949   13.4060 C.ar    1  UNL1       -0.0027
      3 C          63.8443   88.4409   13.2841 C.ar    1  UNL1        0.0173
      4 C          63.1170   87.9429   12.0704 C.ar    1  UNL1        0.0664
      5 C          62.7376   88.8989   10.9787 C.ar    1  UNL1        0.0173
      6 C          63.0855   90.3529   11.1005 C.ar    1  UNL1       -0.0027
      7 N          62.7690   86.4889   11.9485 N.ar    1  UNL1       -0.2787
      8 C          61.8676   85.8816   10.9148 C.ar    1  UNL1        0.1325
      9 N          61.8029   84.4043   11.1665 N.ar    1  UNL1       -0.2287
     10 C          62.6645   84.0985   12.3557 C.ar    1  UNL1        0.1170
     11 C          62.9824   82.8134   13.0609 C.ar    1  UNL1        0.0238
     12 C          63.8974   82.8166   14.2494 C.ar    1  UNL1        0.0223
     13 C          64.4945   84.1050   14.7328 C.ar    1  UNL1        0.1006
     14 N          64.1766   85.3901   14.0276 N.ar    1  UNL1       -0.2248
     15 C          63.2615   85.3869   12.8391 C.ar    1  UNL1        0.1663
     16 C          61.1557   86.6218    9.8214 C.3     1  UNL1        0.1381
     17 C          60.2157   87.5750    9.1450 C.3     1  UNL1        0.0161
     18 C          60.2514   87.4926   10.6423 C.3     1  UNL1        0.0161
     19 C          61.8128   86.0080    8.6208 C.3     1  UNL1        0.4034
     20 F          62.4698   85.3942    7.4201 F       1  UNL1       -0.1696
     21 F          63.1598   86.2467    9.2359 F       1  UNL1       -0.1696
     22 F          60.4657   85.7692    8.0057 F       1  UNL1       -0.1696
     23 C          64.1607   92.3049   12.4360 C.3     1  UNL1        0.0516
     24 CA         65.4289   92.7177   13.1227 C.3     1  UNL1        0.1102
     25 O          67.1406   91.2997   14.4679 O.co2   1  UNL1       -0.5475
     26 C          65.8424   92.0481   14.3997 C.2     1  UNL1        0.0684
     27 OXT        64.9577   92.1270   15.6084 O.co2   1  UNL1       -0.5475
     28 N          66.2834   93.7999   12.5323 N.pl3   1  UNL1       -0.3320
     29 H          66.4214   94.6415   13.0242 H       1  UNL1        0.1468
     30 C          66.9275   93.5999   11.1925 C.2     1  UNL1        0.0372
     31 C          67.8449   92.5719   10.5995 C.2     1  UNL1        0.0788
     32 BR         68.4980   91.3180   11.1007 Br      1  UNL1       -0.0451
     33 C          67.8385   93.3170    9.2978 C.2     1  UNL1        0.1842
     34 O          68.4827   93.1171    7.9580 O.2     1  UNL1       -0.2904
     35 C          66.9211   94.3451    9.8908 C.3     1  UNL1        0.0874
     36 C          67.1525   94.7988    8.4798 C.3     1  UNL1        0.0126
     37 C          66.4993   96.0527    7.9787 C.3     1  UNL1        0.0008
     38 C          65.6148   96.8529    8.8883 C.3     1  UNL1        0.0000
     39 C          65.3836   96.3991   10.2992 C.3     1  UNL1        0.0008
     40 C          66.0367   95.1453   10.8004 C.3     1  UNL1        0.0126
@<TRIPOS>UNITY_ATOM_ATTR
25 1
charge -1
@<TRIPOS>BOND
     1    25    26   ar
     2    26    27   ar
     3    26    24    1
     4    24    23    1
     5    23     1    1
     6     1     2   ar
     7     2     3   ar
     8     3     4   ar
     9     4     7    1
    10     7     8   ar
    11     8    16    1
    12    16    19    1
    13    19    20    1
    14    19    21    1
    15    19    22    1
    16    16    17    1
    17    17    18    1
    18     8     9   ar
    19     9    10   ar
    20    10    11   ar
    21    11    12   ar
    22    12    13   ar
    23    13    14   ar
    24    14    15   ar
    25     4     5   ar
    26     5     6   ar
    27    24    28    1
    28    28    30    1
    29    30    31    2
    30    31    32    1
    31    31    33    1
    32    33    34    2
    33    33    35    1
    34    35    36    1
    35    36    37    1
    36    37    38    1
    37    38    39    1
    38    39    40    1
    39     6     1   ar
    40    35    30    1
    41    15     7   ar
    42    40    35    1
    43    18    16    1
    44    15    10   ar
    45    28    29    1
@<TRIPOS>MOLECULE
*****
 40 45 0 0 0
SMALL
GASTEIGER

@<TRIPOS>ATOM
      1 C          62.3876   90.0649   10.6156 C.ar    1  UNL1       -0.0201
      2 C          62.9878   91.2402    9.9026 C.ar    1  UNL1       -0.0027
      3 C          64.0696   92.0443   10.5609 C.ar    1  UNL1        0.0173
      4 C          64.5511   91.6730   11.9322 C.ar    1  UNL1        0.0664
      5 C          63.9509   90.4977   12.6451 C.ar    1  UNL1        0.0173
      6 C          62.8692   89.6937   11.9868 C.ar    1  UNL1       -0.0027
      7 N          65.6329   92.4771   12.5905 N.ar    1  UNL1       -0.2787
      8 C          66.5819   93.4109   11.8994 C.ar    1  UNL1        0.1325
      9 N          67.4910   93.9995   12.9372 N.ar    1  UNL1       -0.2287
     10 C          67.1039   93.4294   14.2696 C.ar    1  UNL1        0.1170
     11 C          67.6488   93.6456   15.6503 C.ar    1  UNL1        0.0238
     12 C          67.0453   92.9208   16.8167 C.ar    1  UNL1        0.0223
     13 C          65.8969   91.9799   16.6024 C.ar    1  UNL1        0.1006
     14 N          65.3520   91.7638   15.2217 N.ar    1  UNL1       -0.2248
     15 C          65.9555   92.4886   14.0553 C.ar    1  UNL1        0.1663
     16 C          66.6157   93.7046   10.4289 C.3     1  UNL1        0.1381
     17 C          66.3179   94.3673    9.1167 C.3     1  UNL1        0.0161
     18 C          65.6723   94.8694   10.3740 C.3     1  UNL1        0.0161
     19 C          67.5709   92.6417    9.9729 C.3     1  UNL1        0.4034
     20 F          68.5261   91.5789    9.5169 F       1  UNL1       -0.1696
     21 F          67.5000   91.9976   11.3257 F       1  UNL1       -0.1696
     22 F          67.6419   93.2858    8.6201 F       1  UNL1       -0.1696
     23 C          61.3059   89.2608    9.9574 C.3     1  UNL1        0.0516
     24 CA         60.2621   88.5814   10.7934 C.3     1  UNL1        0.1102
     25 O          59.0753   90.8220   11.3601 O.co2   1  UNL1       -0.5475
     26 C          59.3794   89.3920   11.6955 C.2     1  UNL1        0.0684
     27 OXT        58.8008   88.7725   12.9330 O.co2   1  UNL1       -0.5475
     28 N          60.1012   87.0916   10.7274 N.pl3   1  UNL1       -0.3320
     29 H          59.2093   86.6878   10.8308 H       1  UNL1        0.1468
     30 C          61.2991   86.2170   10.5038 C.2     1  UNL1        0.0372
     31 C          62.4107   85.6995   11.3679 C.2     1  UNL1        0.0788
     32 BR         62.7848   85.8423   12.8134 Br      1  UNL1       -0.0451
     33 C          62.9933   84.9801   10.1876 C.2     1  UNL1        0.1842
     34 O          64.1913   84.1055    9.9640 O.2     1  UNL1       -0.2904
     35 C          61.8817   85.4976    9.3235 C.3     1  UNL1        0.0874
     36 C          62.7322   84.6688    8.4071 C.3     1  UNL1        0.0126
     37 C          62.3581   84.5260    6.9615 C.3     1  UNL1        0.0008
     38 C          61.1336   85.2121    6.4323 C.3     1  UNL1        0.0000
     39 C          60.2832   86.0409    7.3487 C.3     1  UNL1        0.0008
     40 C          60.6572   86.1836    8.7943 C.3     1  UNL1        0.0126
@<TRIPOS>UNITY_ATOM_ATTR
25 1
charge -1
@<TRIPOS>BOND
     1    25    26   ar
     2    26    27   ar
     3    26    24    1
     4    24    23    1
     5    23     1    1
     6     1     2   ar
     7     2     3   ar
     8     3     4   ar
     9     4     7    1
    10     7     8   ar
    11     8    16    1
    12    16    19    1
    13    19    20    1
    14    19    21    1
    15    19    22    1
    16    16    17    1
    17    17    18    1
    18     8     9   ar
    19     9    10   ar
    20    10    11   ar
    21    11    12   ar
    22    12    13   ar
    23    13    14   ar
    24    14    15   ar
    25     4     5   ar
    26     5     6   ar
    27    24    28    1
    28    28    30    1
    29    30    31    2
    30    31    32    1
    31    31    33    1
    32    33    34    2
    33    33    35    1
    34    35    36    1
    35    36    37    1
    36    37    38    1
    37    38    39    1
    38    39    40    1
    39     6     1   ar
    40    35    30    1
    41    15     7   ar
    42    40    35    1
    43    18    16    1
    44    15    10   ar
    45    28    29    1
@<TRIPOS>MOLECULE
*****
 40 45 0 0 0
SMALL
GASTEIGER

@<TRIPOS>ATOM
      1 C          62.3330   89.4835   10.1075 C.ar    1  UNL1       -0.0201
      2 C          62.8903   90.8207    9.7186 C.ar    1  UNL1       -0.0027
      3 C          63.7843   91.5649   10.6657 C.ar    1  UNL1        0.0173
      4 C          64.1210   90.9718   12.0018 C.ar    1  UNL1        0.0664
      5 C          63.5637   89.6347   12.3906 C.ar    1  UNL1        0.0173
      6 C          62.6697   88.8905   11.4435 C.ar    1  UNL1       -0.0027
      7 N          65.0150   91.7160   12.9489 N.ar    1  UNL1       -0.2787
      8 C          66.2241   92.5198   12.5723 C.ar    1  UNL1        0.1325
      9 N          66.8132   93.0876   13.8296 N.ar    1  UNL1       -0.2287
     10 C          65.9681   92.6347   14.9831 C.ar    1  UNL1        0.1170
     11 C          66.0670   92.8846   16.4588 C.ar    1  UNL1        0.0238
     12 C          65.0545   92.2868   17.3902 C.ar    1  UNL1        0.0223
     13 C          63.9431   91.4391   16.8459 C.ar    1  UNL1        0.1006
     14 N          63.8442   91.1892   15.3702 N.ar    1  UNL1       -0.2248
     15 C          64.8567   91.7869   14.4388 C.ar    1  UNL1        0.1663
     16 C          66.7516   92.7206   11.1826 C.3     1  UNL1        0.1381
     17 C          67.5634   92.5101    9.9390 C.3     1  UNL1        0.0161
     18 C          67.7535   91.6060   11.1206 C.3     1  UNL1        0.0161
     19 C          65.9330   93.9050   10.7618 C.3     1  UNL1        0.4034
     20 F          65.1144   95.0894   10.3410 F       1  UNL1       -0.1696
     21 F          65.8224   94.3373   12.1939 F       1  UNL1       -0.1696
     22 F          66.0436   93.4727    9.3297 F       1  UNL1       -0.1696
     23 C          61.4390   88.7393    9.1604 C.3     1  UNL1        0.0516
     24 CA         60.9807   87.3511    9.4960 C.3     1  UNL1        0.1102
     25 O          58.4828   87.1497    8.8103 O.co2   1  UNL1       -0.5475
     26 C          59.9068   86.6975    8.6776 C.2     1  UNL1        0.0684
     27 OXT        60.2571   85.5917    7.7265 O.co2   1  UNL1       -0.5475
     28 N          61.5962   86.6165   10.6499 N.pl3   1  UNL1       -0.3320
     29 H          61.4151   86.9088   11.5724 H       1  UNL1        0.1468
     30 C          62.4875   85.4366   10.3982 C.2     1  UNL1        0.0372
     31 C          63.1045   84.8139    9.1810 C.2     1  UNL1        0.0788
     32 BR         63.0857   85.1132    7.7113 Br      1  UNL1       -0.0451
     33 C          63.7480   83.7679   10.0422 C.2     1  UNL1        0.1842
     34 O          64.6393   82.5880    9.7906 O.2     1  UNL1       -0.2904
     35 C          63.1310   84.3906   11.2595 C.3     1  UNL1        0.0874
     36 C          63.9123   83.2191   11.7763 C.3     1  UNL1        0.0126
     37 C          63.9311   82.9198   13.2461 C.3     1  UNL1        0.0008
     38 C          63.1685   83.7920   14.1990 C.3     1  UNL1        0.0000
     39 C          62.3872   84.9635   13.6820 C.3     1  UNL1        0.0008
     40 C          62.3685   85.2628   12.2123 C.3     1  UNL1        0.0126
@<TRIPOS>UNITY_ATOM_ATTR
25 1
charge -1
@<TRIPOS>BOND
     1    25    26   ar
     2    26    27   ar
     3    26    24    1
     4    24    23    1
     5    23     1    1
     6     1     2   ar
     7     2     3   ar
     8     3     4   ar
     9     4     7    1
    10     7     8   ar
    11     8    16    1
    12    16    19    1
    13    19    20    1
    14    19    21    1
    15    19    22    1
    16    16    17    1
    17    17    18    1
    18     8     9   ar
    19     9    10   ar
    20    10    11   ar
    21    11    12   ar
    22    12    13   ar
    23    13    14   ar
    24    14    15   ar
    25     4     5   ar
    26     5     6   ar
    27    24    28    1
    28    28    30    1
    29    30    31    2
    30    31    32    1
    31    31    33    1
    32    33    34    2
    33    33    35    1
    34    35    36    1
    35    36    37    1
    36    37    38    1
    37    38    39    1
    38    39    40    1
    39     6     1   ar
    40    35    30    1
    41    15     7   ar
    42    40    35    1
    43    18    16    1
    44    15    10   ar
    45    28    29    1
@<TRIPOS>MOLECULE
*****
 40 45 0 0 0
SMALL
GASTEIGER

@<TRIPOS>ATOM
      1 C          64.1366   91.0553   12.6669 C.ar    1  UNL1       -0.0201
      2 C          64.3443   90.0582   13.7681 C.ar    1  UNL1       -0.0027
      3 C          63.9014   88.6367   13.5861 C.ar    1  UNL1        0.0173
      4 C          63.2508   88.2122   12.3028 C.ar    1  UNL1        0.0664
      5 C          63.0431   89.2093   11.2017 C.ar    1  UNL1        0.0173
      6 C          63.4860   90.6308   11.3837 C.ar    1  UNL1       -0.0027
      7 N          62.8079   86.7907   12.1208 N.ar    1  UNL1       -0.2787
      8 C          61.7780   86.3063   11.1438 C.ar    1  UNL1        0.1325
      9 N          61.6507   84.8202   11.3031 N.ar    1  UNL1       -0.2287
     10 C          62.6020   84.3862   12.3786 C.ar    1  UNL1        0.1170
     11 C          62.9094   83.0394   12.9630 C.ar    1  UNL1        0.0238
     12 C          63.9319   82.9104   14.0528 C.ar    1  UNL1        0.0223
     13 C          64.6471   84.1282   14.5582 C.ar    1  UNL1        0.1006
     14 N          64.3397   85.4750   13.9738 N.ar    1  UNL1       -0.2248
     15 C          63.3172   85.6040   12.8840 C.ar    1  UNL1        0.1663
     16 C          61.0101   87.1584   10.1771 C.3     1  UNL1        0.1381
     17 C          60.0912   88.2253    9.6603 C.3     1  UNL1        0.0161
     18 C          60.3084   88.0731   11.1367 C.3     1  UNL1        0.0161
     19 C          61.4452   86.5395    8.8818 C.3     1  UNL1        0.4034
     20 F          61.8803   85.9208    7.5866 F       1  UNL1       -0.1696
     21 F          60.0757   85.9549    8.7012 F       1  UNL1       -0.1696
     22 F          62.8147   87.1242    9.0625 F       1  UNL1       -0.1696
     23 C          64.5795   92.4768   12.8489 C.3     1  UNL1        0.0516
     24 CA         65.8850   92.7750   13.5246 C.3     1  UNL1        0.1102
     25 O          64.7636   92.4324   15.8430 O.co2   1  UNL1       -0.5475
     26 C          65.9726   92.7705   15.0221 C.2     1  UNL1        0.0684
     27 OXT        67.2692   93.1043   15.6984 O.co2   1  UNL1       -0.5475
     28 N          67.1029   93.0775   12.7029 N.pl3   1  UNL1       -0.3320
     29 H          67.9595   92.6398   12.9127 H       1  UNL1        0.1468
     30 C          67.0158   94.0468   11.5615 C.2     1  UNL1        0.0372
     31 C          66.4881   95.4407   11.3916 C.2     1  UNL1        0.0788
     32 BR         65.8290   96.4425   12.2928 Br      1  UNL1       -0.0451
     33 C          66.8924   95.4177    9.9474 C.2     1  UNL1        0.1842
     34 O          66.8053   96.3871    8.8060 O.2     1  UNL1       -0.2904
     35 C          67.4201   94.0239   10.1173 C.3     1  UNL1        0.0874
     36 C          67.6741   94.3625    8.6782 C.3     1  UNL1        0.0126
     37 C          68.3332   93.3607    7.7771 C.3     1  UNL1        0.0008
     38 C          68.7382   92.0203    8.3149 C.3     1  UNL1        0.0000
     39 C          68.4842   91.6817    9.7540 C.3     1  UNL1        0.0008
     40 C          67.8251   92.6835   10.6551 C.3     1  UNL1        0.0126
@<TRIPOS>UNITY_ATOM_ATTR
25 1
charge -1
@<TRIPOS>BOND
     1    25    26   ar
     2    26    27   ar
     3    26    24    1
     4    24    23    1
     5    23     1    1
     6     1     2   ar
     7     2     3   ar
     8     3     4   ar
     9     4     7    1
    10     7     8   ar
    11     8    16    1
    12    16    19    1
    13    19    20    1
    14    19    21    1
    15    19    22    1
    16    16    17    1
    17    17    18    1
    18     8     9   ar
    19     9    10   ar
    20    10    11   ar
    21    11    12   ar
    22    12    13   ar
    23    13    14   ar
    24    14    15   ar
    25     4     5   ar
    26     5     6   ar
    27    24    28    1
    28    28    30    1
    29    30    31    2
    30    31    32    1
    31    31    33    1
    32    33    34    2
    33    33    35    1
    34    35    36    1
    35    36    37    1
    36    37    38    1
    37    38    39    1
    38    39    40    1
    39     6     1   ar
    40    35    30    1
    41    15     7   ar
    42    40    35    1
    43    18    16    1
    44    15    10   ar
    45    28    29    1
@<TRIPOS>MOLECULE
*****
 40 45 0 0 0
SMALL
GASTEIGER

@<TRIPOS>ATOM
      1 C          64.2890   89.0880   14.0090 C.ar    1  UNL1       -0.0201
      2 C          63.5845   89.8406   12.9193 C.ar    1  UNL1       -0.0027
      3 C          62.8318   89.0942   11.8580 C.ar    1  UNL1        0.0173
      4 C          62.7836   87.5952   11.8864 C.ar    1  UNL1        0.0664
      5 C          63.4880   86.8427   12.9761 C.ar    1  UNL1        0.0173
      6 C          64.2407   87.5891   14.0374 C.ar    1  UNL1       -0.0027
      7 N          62.0309   86.8488   10.8251 N.ar    1  UNL1       -0.2787
      8 C          62.0147   85.3607   10.6369 C.ar    1  UNL1        0.1325
      9 N          61.1360   85.0517    9.4612 N.ar    1  UNL1       -0.2287
     10 C          60.6091   86.3488    8.9226 C.ar    1  UNL1        0.1170
     11 C          59.6972   86.6621    7.7736 C.ar    1  UNL1        0.0238
     12 C          59.3384   88.0860    7.4676 C.ar    1  UNL1        0.0223
     13 C          59.8915   89.1966    8.3105 C.ar    1  UNL1        0.1006
     14 N          60.8034   88.8834    9.4596 N.ar    1  UNL1       -0.2248
     15 C          61.1622   87.4595    9.7656 C.ar    1  UNL1        0.1663
     16 C          62.7484   84.3577   11.4770 C.3     1  UNL1        0.1381
     17 C          63.1703   83.5644   12.6780 C.3     1  UNL1        0.0161
     18 C          62.1056   84.6129   12.8081 C.3     1  UNL1        0.0161
     19 C          63.6460   83.7542   10.4378 C.3     1  UNL1        0.4034
     20 F          64.5436   83.1507    9.3986 F       1  UNL1       -0.1696
     21 F          63.6770   85.0626    9.7049 F       1  UNL1       -0.1696
     22 F          63.6149   82.4459   11.1707 F       1  UNL1       -0.1696
     23 C          65.0417   89.8344   15.0703 C.3     1  UNL1        0.0516
     24 CA         64.6364   91.2318   15.4350 C.3     1  UNL1        0.1102
     25 O          62.7519   90.2936   16.9579 O.co2   1  UNL1       -0.5475
     26 C          63.5345   91.4582   16.4274 C.2     1  UNL1        0.0684
     27 OXT        63.2154   92.8491   16.8893 O.co2   1  UNL1       -0.5475
     28 N          65.3329   92.4027   14.8074 N.pl3   1  UNL1       -0.3320
     29 H          64.8614   93.2614   14.7098 H       1  UNL1        0.1468
     30 C          66.7477   92.2651   14.3285 C.2     1  UNL1        0.0372
     31 C          68.0827   92.1100   14.9948 C.2     1  UNL1        0.0788
     32 BR         68.5557   92.0282   16.4159 Br      1  UNL1       -0.0451
     33 C          68.7486   92.0707   13.6514 C.2     1  UNL1        0.1842
     34 O          70.1634   91.9331   13.1725 O.2     1  UNL1       -0.2904
     35 C          67.4136   92.2258   12.9851 C.3     1  UNL1        0.0874
     36 C          68.4024   92.1476   11.8598 C.3     1  UNL1        0.0126
     37 C          67.9293   92.2294   10.4387 C.3     1  UNL1        0.0008
     38 C          66.4675   92.3894   10.1428 C.3     1  UNL1        0.0000
     39 C          65.4788   92.4676   11.2681 C.3     1  UNL1        0.0008
     40 C          65.9518   92.3858   12.6892 C.3     1  UNL1        0.0126
@<TRIPOS>UNITY_ATOM_ATTR
25 1
charge -1
@<TRIPOS>BOND
     1    25    26   ar
     2    26    27   ar
     3    26    24    1
     4    24    23    1
     5    23     1    1
     6     1     2   ar
     7     2     3   ar
     8     3     4   ar
     9     4     7    1
    10     7     8   ar
    11     8    16    1
    12    16    19    1
    13    19    20    1
    14    19    21    1
    15    19    22    1
    16    16    17    1
    17    17    18    1
    18     8     9   ar
    19     9    10   ar
    20    10    11   ar
    21    11    12   ar
    22    12    13   ar
    23    13    14   ar
    24    14    15   ar
    25     4     5   ar
    26     5     6   ar
    27    24    28    1
    28    28    30    1
    29    30    31    2
    30    31    32    1
    31    31    33    1
    32    33    34    2
    33    33    35    1
    34    35    36    1
    35    36    37    1
    36    37    38    1
    37    38    39    1
    38    39    40    1
    39     6     1   ar
    40    35    30    1
    41    15     7   ar
    42    40    35    1
    43    18    16    1
    44    15    10   ar
    45    28    29    1
@<TRIPOS>MOLECULE
*****
 40 45 0 0 0
SMALL
GASTEIGER

@<TRIPOS>ATOM
      1 C          62.9612   88.5309   12.4722 C.ar    1  UNL1       -0.0201
      2 C          62.7744   89.6136   11.4510 C.ar    1  UNL1       -0.0027
      3 C          63.5409   90.8974   11.5702 C.ar    1  UNL1        0.0173
      4 C          64.4943   91.0986   12.7107 C.ar    1  UNL1        0.0664
      5 C          64.6811   90.0159   13.7318 C.ar    1  UNL1        0.0173
      6 C          63.9146   88.7320   13.6126 C.ar    1  UNL1       -0.0027
      7 N          65.2608   92.3824   12.8300 N.ar    1  UNL1       -0.2787
      8 C          65.8294   92.9556   14.0942 C.ar    1  UNL1        0.1325
      9 N          66.5133   94.2459   13.7514 N.ar    1  UNL1       -0.2287
     10 C          66.3674   94.4701   12.2755 C.ar    1  UNL1        0.1170
     11 C          66.8394   95.5742   11.3765 C.ar    1  UNL1        0.0238
     12 C          66.5372   95.5265    9.9080 C.ar    1  UNL1        0.0223
     13 C          65.7632   94.3748    9.3385 C.ar    1  UNL1        0.1006
     14 N          65.2912   93.2707   10.2375 N.ar    1  UNL1       -0.2248
     15 C          65.5933   93.3184   11.7060 C.ar    1  UNL1        0.1663
     16 C          65.7313   92.3457   15.4610 C.3     1  UNL1        0.1381
     17 C          65.1283   91.8151   16.7278 C.3     1  UNL1        0.0161
     18 C          64.2431   92.3624   15.6476 C.3     1  UNL1        0.0161
     19 C          67.1855   92.1171   15.7492 C.3     1  UNL1        0.4034
     20 F          68.6397   91.8886   16.0375 F       1  UNL1       -0.1696
     21 F          67.1586   90.8788   14.9031 F       1  UNL1       -0.1696
     22 F          67.2125   93.3554   16.5954 F       1  UNL1       -0.1696
     23 C          62.1947   87.2470   12.3529 C.3     1  UNL1        0.0516
     24 CA         62.6579   86.1825   11.4031 C.3     1  UNL1        0.1102
     25 O          62.9848   85.5031    8.9168 O.co2   1  UNL1       -0.5475
     26 C          62.1784   86.1854    9.9817 C.2     1  UNL1        0.0684
     27 OXT        60.8925   86.8706    9.6254 O.co2   1  UNL1       -0.5475
     28 N          63.6004   85.1151   11.8746 N.pl3   1  UNL1       -0.3320
     29 H          64.5519   85.1531   11.6246 H       1  UNL1        0.1468
     30 C          63.0932   83.9898   12.7269 C.2     1  UNL1        0.0372
     31 C          62.5743   83.8721   14.1294 C.2     1  UNL1        0.0788
     32 BR         62.3478   84.8309   15.2605 Br      1  UNL1       -0.0451
     33 C          62.3759   82.3984   13.9323 C.2     1  UNL1        0.1842
     34 O          61.8687   81.2731   14.7847 O.2     1  UNL1       -0.2904
     35 C          62.8948   82.5161   12.5298 C.3     1  UNL1        0.0874
     36 C          62.5688   81.0622   12.7025 C.3     1  UNL1        0.0126
     37 C          62.7954   80.1033   11.5714 C.3     1  UNL1        0.0008
     38 C          63.3479   80.5984   10.2677 C.3     1  UNL1        0.0000
     39 C          63.6739   82.0524   10.0951 C.3     1  UNL1        0.0008
     40 C          63.4473   83.0112   11.2261 C.3     1  UNL1        0.0126
@<TRIPOS>UNITY_ATOM_ATTR
25 1
charge -1
@<TRIPOS>BOND
     1    25    26   ar
     2    26    27   ar
     3    26    24    1
     4    24    23    1
     5    23     1    1
     6     1     2   ar
     7     2     3   ar
     8     3     4   ar
     9     4     7    1
    10     7     8   ar
    11     8    16    1
    12    16    19    1
    13    19    20    1
    14    19    21    1
    15    19    22    1
    16    16    17    1
    17    17    18    1
    18     8     9   ar
    19     9    10   ar
    20    10    11   ar
    21    11    12   ar
    22    12    13   ar
    23    13    14   ar
    24    14    15   ar
    25     4     5   ar
    26     5     6   ar
    27    24    28    1
    28    28    30    1
    29    30    31    2
    30    31    32    1
    31    31    33    1
    32    33    34    2
    33    33    35    1
    34    35    36    1
    35    36    37    1
    36    37    38    1
    37    38    39    1
    38    39    40    1
    39     6     1   ar
    40    35    30    1
    41    15     7   ar
    42    40    35    1
    43    18    16    1
    44    15    10   ar
    45    28    29    1
@<TRIPOS>MOLECULE
*****
 40 45 0 0 0
SMALL
GASTEIGER

@<TRIPOS>ATOM
      1 C          59.8092   93.2999    0.2105 C.ar    1  UNL1       -0.0201
      2 C          59.2456   94.6871    0.2994 C.ar    1  UNL1       -0.0027
      3 C          58.3062   95.1842   -0.7591 C.ar    1  UNL1        0.0173
      4 C          57.9305   94.2941   -1.9066 C.ar    1  UNL1        0.0664
      5 C          58.4941   92.9069   -1.9954 C.ar    1  UNL1        0.0173
      6 C          59.4335   92.4098   -0.9368 C.ar    1  UNL1       -0.0027
      7 N          56.9911   94.7912   -2.9651 N.ar    1  UNL1       -0.2787
      8 C          57.3114   94.9563   -4.4212 C.ar    1  UNL1        0.1325
      9 N          56.0847   95.4776   -5.1093 N.ar    1  UNL1       -0.2287
     10 C          55.0064   95.6347   -4.0786 C.ar    1  UNL1        0.1170
     11 C          53.5868   96.1093   -4.1755 C.ar    1  UNL1        0.0238
     12 C          52.7273   96.1596   -2.9472 C.ar    1  UNL1        0.0223
     13 C          53.2875   95.7353   -1.6219 C.ar    1  UNL1        0.1006
     14 N          54.7071   95.2608   -1.5250 N.ar    1  UNL1       -0.2248
     15 C          55.5666   95.2105   -2.7533 C.ar    1  UNL1        0.1663
     16 C          58.6272   94.6532   -5.0744 C.3     1  UNL1        0.1381
     17 C          60.0913   94.7214   -5.3936 C.3     1  UNL1        0.0161
     18 C          59.5110   95.6169   -4.3394 C.3     1  UNL1        0.0161
     19 C          58.2005   93.5843   -6.0363 C.3     1  UNL1        0.4034
     20 F          57.7738   92.5155   -6.9983 F       1  UNL1       -0.1696
     21 F          57.9674   92.6456   -4.8898 F       1  UNL1       -0.1696
     22 F          58.4336   94.5230   -7.1829 F       1  UNL1       -0.1696
     23 C          60.7486   92.8028    1.2691 C.3     1  UNL1        0.0516
     24 CA         62.0570   93.4996    1.4980 C.3     1  UNL1        0.1102
     25 O          64.5069   92.6543    1.3155 O.co2   1  UNL1       -0.5475
     26 C          63.2174   92.7452    2.0763 C.2     1  UNL1        0.0684
     27 OXT        63.0882   92.0816    3.4153 O.co2   1  UNL1       -0.5475
     28 N          62.2050   94.9509    1.1488 N.pl3   1  UNL1       -0.3320
     29 H          61.4452   95.5657    1.2675 H       1  UNL1        0.1468
     30 C          63.5104   95.4654    0.6187 C.2     1  UNL1        0.0372
     31 C          64.7293   96.0927    1.2279 C.2     1  UNL1        0.0788
     32 BR         65.1474   96.4653    2.6194 Br      1  UNL1       -0.0451
     33 C          65.3567   96.1930   -0.1309 C.2     1  UNL1        0.1842
     34 O          66.6622   96.7075   -0.6609 O.2     1  UNL1       -0.2904
     35 C          64.1378   95.5657   -0.7400 C.3     1  UNL1        0.0874
     36 C          65.0594   95.8250   -1.8948 C.3     1  UNL1        0.0126
     37 C          64.6413   95.4524   -3.2863 C.3     1  UNL1        0.0008
     38 C          63.3016   94.8205   -3.5231 C.3     1  UNL1        0.0000
     39 C          62.3801   94.5612   -2.3682 C.3     1  UNL1        0.0008
     40 C          62.7982   94.9338   -0.9767 C.3     1  UNL1        0.0126
@<TRIPOS>UNITY_ATOM_ATTR
25 1
charge -1
@<TRIPOS>BOND
     1    25    26   ar
     2    26    27   ar
     3    26    24    1
     4    24    23    1
     5    23     1    1
     6     1     2   ar
     7     2     3   ar
     8     3     4   ar
     9     4     7    1
    10     7     8   ar
    11     8    16    1
    12    16    19    1
    13    19    20    1
    14    19    21    1
    15    19    22    1
    16    16    17    1
    17    17    18    1
    18     8     9   ar
    19     9    10   ar
    20    10    11   ar
    21    11    12   ar
    22    12    13   ar
    23    13    14   ar
    24    14    15   ar
    25     4     5   ar
    26     5     6   ar
    27    24    28    1
    28    28    30    1
    29    30    31    2
    30    31    32    1
    31    31    33    1
    32    33    34    2
    33    33    35    1
    34    35    36    1
    35    36    37    1
    36    37    38    1
    37    38    39    1
    38    39    40    1
    39     6     1   ar
    40    35    30    1
    41    15     7   ar
    42    40    35    1
    43    18    16    1
    44    15    10   ar
    45    28    29    1
