@<TRIPOS>MOLECULE
*****
 34 38 0 0 0
SMALL
GASTEIGER

@<TRIPOS>ATOM
      1 N          62.2301   86.7414   11.5618 N.am    1  UNL1       -0.2683
      2 C          63.0135   87.7480   12.3511 C.2     1  UNL1        0.3047
      3 O          64.2701   87.3337   13.0576 O.2     1  UNL1       -0.2525
      4 N          62.5402   89.1690   12.4339 N.am    1  UNL1       -0.2863
      5 H          61.4053   87.0133   11.0981 H       1  UNL1        0.1564
      6 H          61.7155   89.4409   11.9702 H       1  UNL1        0.1512
      7 C          62.4251   84.9263   16.6527 C.3     1  UNL1        0.0521
      8 C          62.7313   84.3143   15.3179 C.ar    1  UNL1        0.0594
      9 C          62.5642   85.1233   14.0659 C.ar    1  UNL1        0.0160
     10 C          62.8704   84.5114   12.7311 C.ar    1  UNL1        0.0162
     11 C          62.7034   85.3204   11.4790 C.ar    1  UNL1        0.0516
     12 C          63.0096   84.7085   10.1442 C.ar    1  UNL1        0.0147
     13 C          63.4829   83.2874   10.0614 C.ar    1  UNL1        0.0013
     14 C          63.6499   82.4785   11.3134 C.ar    1  UNL1        0.0016
     15 C          63.3437   83.0904   12.6482 C.ar    1  UNL1        0.0204
     16 C          63.5108   82.2814   13.9003 C.ar    1  UNL1        0.0984
     17 N          63.2045   82.8934   15.2351 N.ar    1  UNL1       -0.2481
     18 C          63.3236   90.1756   13.2232 C.3     1  UNL1        0.1021
     19 C          63.2951   90.1397   14.7225 C.3     1  UNL1        0.0700
     20 C          64.0786   91.1464   15.5119 C.3     1  UNL1        0.2000
     21 O          64.8904   92.1888   14.8019 O.3     1  UNL1       -0.4772
     22 C          64.9189   92.2247   13.3026 C.ar    1  UNL1        0.1356
     23 C          65.7308   93.2671   12.5926 C.ar    1  UNL1        0.0323
     24 C          65.7593   93.3030   11.0933 C.ar    1  UNL1       -0.0195
     25 C          64.9759   92.2964   10.3040 C.ar    1  UNL1       -0.0043
     26 C          64.1640   91.2539   11.0140 C.ar    1  UNL1        0.0000
     27 C          64.1356   91.2181   12.5133 C.ar    1  UNL1        0.0296
     28 C          66.5712   94.3455   10.3833 C.3     1  UNL1        0.0225
     29 C          66.9249   95.7856   10.1579 C.3     1  UNL1        0.0047
     30 C          67.6238   94.7110    9.3791 C.3     1  UNL1        0.0047
     31 C          64.6487   91.8793   16.6899 C.3     1  UNL1        0.2357
     32 F          65.9208   92.6604   16.5433 F       1  UNL1       -0.2303
     33 C          63.4647   90.3584   16.6310 C.3     1  UNL1        0.2357
     34 F          63.4320   88.8603   16.5635 F       1  UNL1       -0.2303
@<TRIPOS>BOND
     1     7     8    1
     2     8     9   ar
     3     9    10   ar
     4    10    11   ar
     5    11     1    1
     6     1     2   am
     7     2     3    2
     8     2     4   am
     9    18     4    1
    10    18    19    1
    11    19    20    1
    12    20    31    1
    13    31    32    1
    14    20    33    1
    15    33    34    1
    16    20    21    1
    17    21    22    1
    18    22    23   ar
    19    23    24   ar
    20    24    28    1
    21    28    29    1
    22    29    30    1
    23    24    25   ar
    24    25    26   ar
    25    26    27   ar
    26    11    12   ar
    27    12    13   ar
    28    13    14   ar
    29    14    15   ar
    30    15    16   ar
    31    16    17   ar
    32    17     8   ar
    33    15    10   ar
    34    27    18    1
    35    27    22   ar
    36    30    28    1
    37     1     5    1
    38     4     6    1
@<TRIPOS>MOLECULE
*****
 34 38 0 0 0
SMALL
GASTEIGER

@<TRIPOS>ATOM
      1 N          63.0109   90.2411   13.7996 N.am    1  UNL1       -0.2683
      2 C          63.3848   88.8327   13.4434 C.2     1  UNL1        0.3047
      3 O          64.6729   88.2493   13.9437 O.2     1  UNL1       -0.2525
      4 N          62.4705   88.0079   12.5869 N.am    1  UNL1       -0.2863
      5 H          62.1654   90.6240   13.4713 H       1  UNL1        0.1564
      6 H          61.6250   88.3908   12.2585 H       1  UNL1        0.1512
      7 C          66.4448   92.6830   10.4092 C.3     1  UNL1        0.0521
      8 C          66.2720   92.6912   11.8992 C.ar    1  UNL1        0.0594
      9 C          65.1850   91.8745   12.5327 C.ar    1  UNL1        0.0160
     10 C          65.0123   91.8827   14.0227 C.ar    1  UNL1        0.0162
     11 C          63.9252   91.0659   14.6561 C.ar    1  UNL1        0.0516
     12 C          63.7524   91.0741   16.1461 C.ar    1  UNL1        0.0147
     13 C          64.6668   91.8990   17.0027 C.ar    1  UNL1        0.0013
     14 C          65.7538   92.7157   16.3692 C.ar    1  UNL1        0.0016
     15 C          65.9266   92.7075   14.8792 C.ar    1  UNL1        0.0204
     16 C          67.0136   93.5242   14.2457 C.ar    1  UNL1        0.0984
     17 N          67.1863   93.5161   12.7557 N.ar    1  UNL1       -0.2481
     18 C          62.8443   86.5996   12.2307 C.3     1  UNL1        0.1021
     19 C          63.4007   85.6831   13.2797 C.3     1  UNL1        0.0700
     20 C          63.7746   84.2747   12.9235 C.3     1  UNL1        0.2000
     21 O          63.5921   83.7830   11.5182 O.3     1  UNL1       -0.4772
     22 C          63.0358   84.6995   10.4691 C.ar    1  UNL1        0.1356
     23 C          62.8533   84.2077    9.0639 C.ar    1  UNL1        0.0323
     24 C          62.2970   85.1242    8.0148 C.ar    1  UNL1       -0.0195
     25 C          61.9231   86.5325    8.3710 C.ar    1  UNL1       -0.0043
     26 C          62.1056   87.0242    9.7763 C.ar    1  UNL1        0.0000
     27 C          62.6619   86.1077   10.8253 C.ar    1  UNL1        0.0296
     28 C          62.1145   84.6323    6.6095 C.3     1  UNL1        0.0225
     29 C          61.2553   83.9972    5.5568 C.3     1  UNL1        0.0047
     30 C          62.6577   84.4156    5.2282 C.3     1  UNL1        0.0047
     31 C          64.2718   82.8675   13.0734 C.3     1  UNL1        0.2357
     32 F          65.0041   82.2064   11.9437 F       1  UNL1       -0.2303
     33 C          64.1297   84.2778   14.3808 C.3     1  UNL1        0.2357
     34 F          65.1440   85.2515   14.9035 F       1  UNL1       -0.2303
@<TRIPOS>BOND
     1     7     8    1
     2     8     9   ar
     3     9    10   ar
     4    10    11   ar
     5    11     1    1
     6     1     2   am
     7     2     3    2
     8     2     4   am
     9    18     4    1
    10    18    19    1
    11    19    20    1
    12    20    31    1
    13    31    32    1
    14    20    33    1
    15    33    34    1
    16    20    21    1
    17    21    22    1
    18    22    23   ar
    19    23    24   ar
    20    24    28    1
    21    28    29    1
    22    29    30    1
    23    24    25   ar
    24    25    26   ar
    25    26    27   ar
    26    11    12   ar
    27    12    13   ar
    28    13    14   ar
    29    14    15   ar
    30    15    16   ar
    31    16    17   ar
    32    17     8   ar
    33    15    10   ar
    34    27    18    1
    35    27    22   ar
    36    30    28    1
    37     1     5    1
    38     4     6    1
@<TRIPOS>MOLECULE
*****
 34 38 0 0 0
SMALL
GASTEIGER

@<TRIPOS>ATOM
      1 N          62.6330   86.9761   12.5339 N.am    1  UNL1       -0.2683
      2 C          63.4388   88.0782   13.1555 C.2     1  UNL1        0.3047
      3 O          64.6382   87.7492   13.9940 O.2     1  UNL1       -0.2525
      4 N          63.0452   89.5092   12.9384 N.am    1  UNL1       -0.2863
      5 H          61.8458   87.1921   11.9836 H       1  UNL1        0.1564
      6 H          62.2580   89.7252   12.3880 H       1  UNL1        0.1512
      7 C          63.0067   84.7606    7.6144 C.3     1  UNL1        0.0521
      8 C          63.2085   84.2412    9.0071 C.ar    1  UNL1        0.0594
      9 C          63.0167   85.1528   10.1827 C.ar    1  UNL1        0.0160
     10 C          63.2185   84.6334   11.5753 C.ar    1  UNL1        0.0162
     11 C          63.0267   85.5451   12.7510 C.ar    1  UNL1        0.0516
     12 C          63.2285   85.0257   14.1436 C.ar    1  UNL1        0.0147
     13 C          63.6222   83.5946   14.3607 C.ar    1  UNL1        0.0013
     14 C          63.8140   82.6830   13.1850 C.ar    1  UNL1        0.0016
     15 C          63.6122   83.2024   11.7924 C.ar    1  UNL1        0.0204
     16 C          63.8040   82.2907   10.6168 C.ar    1  UNL1        0.0984
     17 N          63.6022   82.8101    9.2241 N.ar    1  UNL1       -0.2481
     18 C          63.8510   90.6112   13.5599 C.3     1  UNL1        0.1021
     19 C          63.9094   90.7476   15.0525 C.3     1  UNL1        0.0700
     20 C          64.7152   91.8496   15.6740 C.3     1  UNL1        0.2000
     21 O          65.4626   92.8153   14.8029 O.3     1  UNL1       -0.4772
     22 C          65.4041   92.6790   13.3102 C.ar    1  UNL1        0.1356
     23 C          66.1515   93.6446   12.4391 C.ar    1  UNL1        0.0323
     24 C          66.0930   93.5083   10.9464 C.ar    1  UNL1       -0.0195
     25 C          65.2872   92.4063   10.3249 C.ar    1  UNL1       -0.0043
     26 C          64.5399   91.4406   11.1961 C.ar    1  UNL1        0.0000
     27 C          64.5984   91.5770   12.6887 C.ar    1  UNL1        0.0296
     28 C          66.8404   94.4740   10.0753 C.3     1  UNL1        0.0225
     29 C          67.1330   95.8827    9.6511 C.3     1  UNL1        0.0047
     30 C          67.8423   94.7379    8.9905 C.3     1  UNL1        0.0047
     31 C          65.3363   92.7214   16.7248 C.3     1  UNL1        0.2357
     32 F          66.7993   93.0461   16.6614 F       1  UNL1       -0.2303
     33 C          64.1836   91.1867   16.9102 C.3     1  UNL1        0.2357
     34 F          63.3743   89.9288   16.7976 F       1  UNL1       -0.2303
@<TRIPOS>BOND
     1     7     8    1
     2     8     9   ar
     3     9    10   ar
     4    10    11   ar
     5    11     1    1
     6     1     2   am
     7     2     3    2
     8     2     4   am
     9    18     4    1
    10    18    19    1
    11    19    20    1
    12    20    31    1
    13    31    32    1
    14    20    33    1
    15    33    34    1
    16    20    21    1
    17    21    22    1
    18    22    23   ar
    19    23    24   ar
    20    24    28    1
    21    28    29    1
    22    29    30    1
    23    24    25   ar
    24    25    26   ar
    25    26    27   ar
    26    11    12   ar
    27    12    13   ar
    28    13    14   ar
    29    14    15   ar
    30    15    16   ar
    31    16    17   ar
    32    17     8   ar
    33    15    10   ar
    34    27    18    1
    35    27    22   ar
    36    30    28    1
    37     1     5    1
    38     4     6    1
@<TRIPOS>MOLECULE
*****
 34 38 0 0 0
SMALL
GASTEIGER

@<TRIPOS>ATOM
      1 N          63.1195   91.4676   12.0922 N.am    1  UNL1       -0.2683
      2 C          62.7785   90.2759   11.2474 C.2     1  UNL1        0.3047
      3 O          63.7796   89.7405   10.2670 O.2     1  UNL1       -0.2525
      4 N          61.4366   89.6196   11.3831 N.am    1  UNL1       -0.2863
      5 H          62.4624   91.8190   12.7357 H       1  UNL1        0.1564
      6 H          60.7796   89.9710   12.0266 H       1  UNL1        0.1512
      7 C          65.0378   92.0127   17.1194 C.3     1  UNL1        0.0521
      8 C          65.5646   92.3687   15.7608 C.ar    1  UNL1        0.0594
      9 C          64.7496   92.0683   14.5380 C.ar    1  UNL1        0.0160
     10 C          65.2765   92.4243   13.1794 C.ar    1  UNL1        0.0162
     11 C          64.4614   92.1239   11.9565 C.ar    1  UNL1        0.0516
     12 C          64.9883   92.4799   10.5979 C.ar    1  UNL1        0.0147
     13 C          66.3303   93.1362   10.4623 C.ar    1  UNL1        0.0013
     14 C          67.1453   93.4365   11.6851 C.ar    1  UNL1        0.0016
     15 C          66.6184   93.0806   13.0437 C.ar    1  UNL1        0.0204
     16 C          67.4335   93.3809   14.2666 C.ar    1  UNL1        0.0984
     17 N          66.9066   93.0250   15.6251 N.ar    1  UNL1       -0.2481
     18 C          61.0957   88.4279   10.5383 C.3     1  UNL1        0.1021
     19 C          60.2031   88.5863    9.3433 C.3     1  UNL1        0.0700
     20 C          59.8622   87.3945    8.4986 C.3     1  UNL1        0.2000
     21 O          60.4140   86.0444    8.8488 O.3     1  UNL1       -0.4772
     22 C          61.3066   85.8860   10.0439 C.ar    1  UNL1        0.1356
     23 C          61.8584   84.5359   10.3942 C.ar    1  UNL1        0.0323
     24 C          62.7510   84.3775   11.5892 C.ar    1  UNL1       -0.0195
     25 C          63.0919   85.5692   12.4339 C.ar    1  UNL1       -0.0043
     26 C          62.5401   86.9193   12.0836 C.ar    1  UNL1        0.0000
     27 C          61.6475   87.0777   10.8886 C.ar    1  UNL1        0.0296
     28 C          63.3028   83.0273   11.9394 C.3     1  UNL1        0.0225
     29 C          63.1514   81.5360   11.9921 C.3     1  UNL1        0.0047
     30 C          64.4098   82.1802   12.4934 C.3     1  UNL1        0.0047
     31 C          59.2566   86.5726    7.3996 C.3     1  UNL1        0.2357
     32 F          59.8569   85.2469    7.0366 F       1  UNL1       -0.2303
     33 C          59.1001   88.4592    7.7666 C.3     1  UNL1        0.2357
     34 F          59.8070   89.3485    6.7871 F       1  UNL1       -0.2303
@<TRIPOS>BOND
     1     7     8    1
     2     8     9   ar
     3     9    10   ar
     4    10    11   ar
     5    11     1    1
     6     1     2   am
     7     2     3    2
     8     2     4   am
     9    18     4    1
    10    18    19    1
    11    19    20    1
    12    20    31    1
    13    31    32    1
    14    20    33    1
    15    33    34    1
    16    20    21    1
    17    21    22    1
    18    22    23   ar
    19    23    24   ar
    20    24    28    1
    21    28    29    1
    22    29    30    1
    23    24    25   ar
    24    25    26   ar
    25    26    27   ar
    26    11    12   ar
    27    12    13   ar
    28    13    14   ar
    29    14    15   ar
    30    15    16   ar
    31    16    17   ar
    32    17     8   ar
    33    15    10   ar
    34    27    18    1
    35    27    22   ar
    36    30    28    1
    37     1     5    1
    38     4     6    1
@<TRIPOS>MOLECULE
*****
 34 38 0 0 0
SMALL
GASTEIGER

@<TRIPOS>ATOM
      1 N          63.3428   88.2733   13.5289 N.am    1  UNL1       -0.2683
      2 C          64.3535   89.3538   13.7762 C.2     1  UNL1        0.3047
      3 O          65.5774   89.0631   14.5933 O.2     1  UNL1       -0.2525
      4 N          64.1404   90.7248   13.2062 N.am    1  UNL1       -0.2863
      5 H          62.5395   88.4640   12.9926 H       1  UNL1        0.1564
      6 H          63.3372   90.9155   12.6699 H       1  UNL1        0.1512
      7 C          62.6109   84.8165    9.4345 C.3     1  UNL1        0.0521
      8 C          62.9537   84.6524   10.8855 C.ar    1  UNL1        0.0594
      9 C          63.0834   85.8593   11.7667 C.ar    1  UNL1        0.0160
     10 C          63.4262   85.6952   13.2177 C.ar    1  UNL1        0.0162
     11 C          63.5559   86.9023   14.0989 C.ar    1  UNL1        0.0516
     12 C          63.8987   86.7382   15.5499 C.ar    1  UNL1        0.0147
     13 C          64.1119   85.3671   16.1198 C.ar    1  UNL1        0.0013
     14 C          63.9822   84.1601   15.2387 C.ar    1  UNL1        0.0016
     15 C          63.6393   84.3242   13.7876 C.ar    1  UNL1        0.0204
     16 C          63.5096   83.1173   12.9065 C.ar    1  UNL1        0.0984
     17 N          63.1668   83.2814   11.4554 N.ar    1  UNL1       -0.2481
     18 C          65.1511   91.8051   13.4535 C.3     1  UNL1        0.1021
     19 C          65.8300   91.9061   14.7872 C.3     1  UNL1        0.0700
     20 C          66.8408   92.9865   15.0344 C.3     1  UNL1        0.2000
     21 O          67.1726   93.9660   13.9479 O.3     1  UNL1       -0.4772
     22 C          66.4937   93.8651   12.6142 C.ar    1  UNL1        0.1356
     23 C          66.8255   94.8445   11.5277 C.ar    1  UNL1        0.0323
     24 C          66.1465   94.7436   10.1939 C.ar    1  UNL1       -0.0195
     25 C          65.1358   93.6632    9.9467 C.ar    1  UNL1       -0.0043
     26 C          64.8040   92.6838   11.0332 C.ar    1  UNL1        0.0000
     27 C          65.4830   92.7847   12.3669 C.ar    1  UNL1        0.0296
     28 C          66.4784   95.7231    9.1074 C.3     1  UNL1        0.0225
     29 C          67.4590   96.2884    8.1231 C.3     1  UNL1        0.0047
     30 C          66.0726   96.8543    8.2098 C.3     1  UNL1        0.0047
     31 C          67.8591   93.8283   15.7447 C.3     1  UNL1        0.2357
     32 F          69.2888   93.8180   15.2912 F       1  UNL1       -0.2303
     33 C          66.8627   92.2994   16.3676 C.3     1  UNL1        0.2357
     34 F          68.1723   91.9446   17.0071 F       1  UNL1       -0.2303
@<TRIPOS>BOND
     1     7     8    1
     2     8     9   ar
     3     9    10   ar
     4    10    11   ar
     5    11     1    1
     6     1     2   am
     7     2     3    2
     8     2     4   am
     9    18     4    1
    10    18    19    1
    11    19    20    1
    12    20    31    1
    13    31    32    1
    14    20    33    1
    15    33    34    1
    16    20    21    1
    17    21    22    1
    18    22    23   ar
    19    23    24   ar
    20    24    28    1
    21    28    29    1
    22    29    30    1
    23    24    25   ar
    24    25    26   ar
    25    26    27   ar
    26    11    12   ar
    27    12    13   ar
    28    13    14   ar
    29    14    15   ar
    30    15    16   ar
    31    16    17   ar
    32    17     8   ar
    33    15    10   ar
    34    27    18    1
    35    27    22   ar
    36    30    28    1
    37     1     5    1
    38     4     6    1
@<TRIPOS>MOLECULE
*****
 34 38 0 0 0
SMALL
GASTEIGER

@<TRIPOS>ATOM
      1 N          62.4316   85.7537    8.9248 N.am    1  UNL1       -0.2683
      2 C          62.2853   85.0275   10.2292 C.2     1  UNL1        0.3047
      3 O          61.1542   85.3673   11.1540 O.2     1  UNL1       -0.2525
      4 N          63.2700   83.9616   10.6087 N.am    1  UNL1       -0.2863
      5 H          63.1739   85.5307    8.3178 H       1  UNL1        0.1564
      6 H          64.0124   83.7386   10.0017 H       1  UNL1        0.1512
      7 C          63.2388   89.8389   12.3758 C.3     1  UNL1        0.0521
      8 C          62.2984   89.6170   11.2284 C.ar    1  UNL1        0.0594
      9 C          62.3428   88.3293   10.4605 C.ar    1  UNL1        0.0160
     10 C          61.4024   88.1074    9.3132 C.ar    1  UNL1        0.0162
     11 C          61.4468   86.8196    8.5453 C.ar    1  UNL1        0.0516
     12 C          60.5065   86.5977    7.3979 C.ar    1  UNL1        0.0147
     13 C          59.5217   87.6637    7.0184 C.ar    1  UNL1        0.0013
     14 C          59.4773   88.9515    7.7863 C.ar    1  UNL1        0.0016
     15 C          60.4177   89.1733    8.9336 C.ar    1  UNL1        0.0204
     16 C          60.3733   90.4611    9.7015 C.ar    1  UNL1        0.0984
     17 N          61.3137   90.6829   10.8489 N.ar    1  UNL1       -0.2481
     18 C          63.1237   83.2355   11.9130 C.3     1  UNL1        0.1021
     19 C          62.9994   81.7407   11.9295 C.3     1  UNL1        0.0700
     20 C          62.8531   81.0146   13.2339 C.3     1  UNL1        0.2000
     21 O          62.8311   81.7832   14.5218 O.3     1  UNL1       -0.4772
     22 C          62.9553   83.2780   14.5053 C.ar    1  UNL1        0.1356
     23 C          62.9333   84.0466   15.7932 C.ar    1  UNL1        0.0323
     24 C          63.0576   85.5414   15.7767 C.ar    1  UNL1       -0.0195
     25 C          63.2039   86.2675   14.4724 C.ar    1  UNL1       -0.0043
     26 C          63.2259   85.4989   13.1845 C.ar    1  UNL1        0.0000
     27 C          63.1017   84.0041   13.2010 C.ar    1  UNL1        0.0296
     28 C          63.0355   86.3100   17.0647 C.3     1  UNL1        0.0225
     29 C          63.0298   87.6197   17.7959 C.3     1  UNL1        0.0047
     30 C          63.0030   86.3317   18.5642 C.3     1  UNL1        0.0047
     31 C          62.6954   79.8853   14.2084 C.3     1  UNL1        0.2357
     32 F          62.4215   78.4973   13.7102 F       1  UNL1       -0.2303
     33 C          62.8204   79.8537   12.2845 C.3     1  UNL1        0.2357
     34 F          62.8413   80.0948   10.8041 F       1  UNL1       -0.2303
@<TRIPOS>BOND
     1     7     8    1
     2     8     9   ar
     3     9    10   ar
     4    10    11   ar
     5    11     1    1
     6     1     2   am
     7     2     3    2
     8     2     4   am
     9    18     4    1
    10    18    19    1
    11    19    20    1
    12    20    31    1
    13    31    32    1
    14    20    33    1
    15    33    34    1
    16    20    21    1
    17    21    22    1
    18    22    23   ar
    19    23    24   ar
    20    24    28    1
    21    28    29    1
    22    29    30    1
    23    24    25   ar
    24    25    26   ar
    25    26    27   ar
    26    11    12   ar
    27    12    13   ar
    28    13    14   ar
    29    14    15   ar
    30    15    16   ar
    31    16    17   ar
    32    17     8   ar
    33    15    10   ar
    34    27    18    1
    35    27    22   ar
    36    30    28    1
    37     1     5    1
    38     4     6    1
@<TRIPOS>MOLECULE
*****
 34 38 0 0 0
SMALL
GASTEIGER

@<TRIPOS>ATOM
      1 N          61.3808   88.5888   11.8471 N.am    1  UNL1       -0.2683
      2 C          62.6127   89.3204   12.2914 C.2     1  UNL1        0.3047
      3 O          63.9694   88.7503   12.0009 O.2     1  UNL1       -0.2525
      4 N          62.4878   90.6221   13.0262 N.am    1  UNL1       -0.2863
      5 H          60.4904   88.9629   12.0378 H       1  UNL1        0.1564
      6 H          61.5974   90.9963   13.2169 H       1  UNL1        0.1512
      7 C          58.9385   89.3187    7.0772 C.3     1  UNL1        0.0521
      8 C          59.6428   88.1599    7.7186 C.ar    1  UNL1        0.0594
      9 C          60.2221   88.3028    9.0947 C.ar    1  UNL1        0.0160
     10 C          60.9264   87.1441    9.7361 C.ar    1  UNL1        0.0162
     11 C          61.5057   87.2871   11.1123 C.ar    1  UNL1        0.0516
     12 C          62.2099   86.1283   11.7537 C.ar    1  UNL1        0.0147
     13 C          62.3348   84.8266   11.0188 C.ar    1  UNL1        0.0013
     14 C          61.7555   84.6836    9.6427 C.ar    1  UNL1        0.0016
     15 C          61.0512   85.8424    9.0013 C.ar    1  UNL1        0.0204
     16 C          60.4719   85.6995    7.6252 C.ar    1  UNL1        0.0984
     17 N          59.7676   86.8582    6.9838 N.ar    1  UNL1       -0.2481
     18 C          63.7196   91.3537   13.4705 C.3     1  UNL1        0.1021
     19 C          64.0849   91.3933   14.9247 C.3     1  UNL1        0.0700
     20 C          65.3168   92.1249   15.3690 C.3     1  UNL1        0.2000
     21 O          66.1833   92.8169   14.3589 O.3     1  UNL1       -0.4772
     22 C          65.8180   92.7774   12.9046 C.ar    1  UNL1        0.1356
     23 C          66.6845   93.4694   11.8945 C.ar    1  UNL1        0.0323
     24 C          66.3191   93.4298   10.4402 C.ar    1  UNL1       -0.0195
     25 C          65.0873   92.6982    9.9960 C.ar    1  UNL1       -0.0043
     26 C          64.2209   92.0062   11.0061 C.ar    1  UNL1        0.0000
     27 C          64.5862   92.0458   12.4604 C.ar    1  UNL1        0.0296
     28 C          67.1857   94.1219    9.4302 C.3     1  UNL1        0.0225
     29 C          67.7135   95.3866    8.8204 C.3     1  UNL1        0.0047
     30 C          68.1587   94.0559    8.2905 C.3     1  UNL1        0.0047
     31 C          66.3753   92.6835   16.2731 C.3     1  UNL1        0.2357
     32 F          67.4997   93.4943   15.7001 F       1  UNL1       -0.2303
     33 C          64.8179   91.6269   16.6930 C.3     1  UNL1        0.2357
     34 F          64.5452   92.5964   17.8046 F       1  UNL1       -0.2303
@<TRIPOS>BOND
     1     7     8    1
     2     8     9   ar
     3     9    10   ar
     4    10    11   ar
     5    11     1    1
     6     1     2   am
     7     2     3    2
     8     2     4   am
     9    18     4    1
    10    18    19    1
    11    19    20    1
    12    20    31    1
    13    31    32    1
    14    20    33    1
    15    33    34    1
    16    20    21    1
    17    21    22    1
    18    22    23   ar
    19    23    24   ar
    20    24    28    1
    21    28    29    1
    22    29    30    1
    23    24    25   ar
    24    25    26   ar
    25    26    27   ar
    26    11    12   ar
    27    12    13   ar
    28    13    14   ar
    29    14    15   ar
    30    15    16   ar
    31    16    17   ar
    32    17     8   ar
    33    15    10   ar
    34    27    18    1
    35    27    22   ar
    36    30    28    1
    37     1     5    1
    38     4     6    1
@<TRIPOS>MOLECULE
*****
 34 38 0 0 0
SMALL
GASTEIGER

@<TRIPOS>ATOM
      1 N          61.5541   89.0564   12.2336 N.am    1  UNL1       -0.2683
      2 C          62.8308   89.8097   12.4633 C.2     1  UNL1        0.3047
      3 O          64.0301   89.5318   11.6063 O.2     1  UNL1       -0.2525
      4 N          62.9081   90.8408   13.5499 N.am    1  UNL1       -0.2863
      5 H          60.7670   89.2388   12.7961 H       1  UNL1        0.1564
      6 H          62.1210   91.0232   14.1124 H       1  UNL1        0.1512
      7 C          64.2396   84.7365   14.0712 C.3     1  UNL1        0.0521
      8 C          63.5102   85.0431   12.7969 C.ar    1  UNL1        0.0594
      9 C          62.8582   86.3808   12.6091 C.ar    1  UNL1        0.0160
     10 C          62.1288   86.6875   11.3347 C.ar    1  UNL1        0.0162
     11 C          61.4768   88.0253   11.1470 C.ar    1  UNL1        0.0516
     12 C          60.7474   88.3319    9.8726 C.ar    1  UNL1        0.0147
     13 C          60.6701   87.3007    8.7860 C.ar    1  UNL1        0.0013
     14 C          61.3221   85.9630    8.9737 C.ar    1  UNL1        0.0016
     15 C          62.0515   85.6563   10.2481 C.ar    1  UNL1        0.0204
     16 C          62.7035   84.3186   10.4359 C.ar    1  UNL1        0.0984
     17 N          63.4329   84.0120   11.7102 N.ar    1  UNL1       -0.2481
     18 C          64.1848   91.5940   13.7795 C.3     1  UNL1        0.1021
     19 C          64.7665   91.6809   15.1594 C.3     1  UNL1        0.0700
     20 C          66.0432   92.4342   15.3890 C.3     1  UNL1        0.2000
     21 O          66.7382   93.1005   14.2388 O.3     1  UNL1       -0.4772
     22 C          66.1564   93.0136   12.8589 C.ar    1  UNL1        0.1356
     23 C          66.8514   93.6798   11.7087 C.ar    1  UNL1        0.0323
     24 C          66.2696   93.5929   10.3288 C.ar    1  UNL1       -0.0195
     25 C          64.9930   92.8397   10.0992 C.ar    1  UNL1       -0.0043
     26 C          64.2981   92.1734   11.2494 C.ar    1  UNL1        0.0000
     27 C          64.8798   92.2603   12.6293 C.ar    1  UNL1        0.0296
     28 C          66.9646   94.2592    9.1785 C.3     1  UNL1        0.0225
     29 C          68.0621   94.2740    8.1562 C.3     1  UNL1        0.0047
     30 C          67.0709   95.3985    8.2086 C.3     1  UNL1        0.0047
     31 C          67.2205   93.0276   16.1045 C.3     1  UNL1        0.2357
     32 F          68.2585   92.1314   16.7122 F       1  UNL1       -0.2303
     33 C          65.7572   91.9740   16.7877 C.3     1  UNL1        0.2357
     34 F          64.4446   92.3068   17.4331 F       1  UNL1       -0.2303
@<TRIPOS>BOND
     1     7     8    1
     2     8     9   ar
     3     9    10   ar
     4    10    11   ar
     5    11     1    1
     6     1     2   am
     7     2     3    2
     8     2     4   am
     9    18     4    1
    10    18    19    1
    11    19    20    1
    12    20    31    1
    13    31    32    1
    14    20    33    1
    15    33    34    1
    16    20    21    1
    17    21    22    1
    18    22    23   ar
    19    23    24   ar
    20    24    28    1
    21    28    29    1
    22    29    30    1
    23    24    25   ar
    24    25    26   ar
    25    26    27   ar
    26    11    12   ar
    27    12    13   ar
    28    13    14   ar
    29    14    15   ar
    30    15    16   ar
    31    16    17   ar
    32    17     8   ar
    33    15    10   ar
    34    27    18    1
    35    27    22   ar
    36    30    28    1
    37     1     5    1
    38     4     6    1
