@<TRIPOS>MOLECULE
*****
 40 44 0 0 0
SMALL
GASTEIGER

@<TRIPOS>ATOM
      1 N          63.7067   86.7126   13.4120 N.ar    1  UNL1       -0.3063
      2 C          62.9549   85.8047   12.4843 C.ar    1  UNL1        0.1240
      3 C          62.3241   86.6507   11.4182 C.ar    1  UNL1        0.1156
      4 C          62.6861   88.0813   11.6870 C.ar    1  UNL1        0.0966
      5 C          63.5406   88.1195   12.9192 C.ar    1  UNL1        0.1349
      6 C          64.0571   89.4306   13.4334 C.ar    1  UNL1        0.2818
      7 O          64.9116   89.4688   14.6656 O.2     1  UNL1       -0.2652
      8 N          63.7190   90.7035   12.7154 N.ar    1  UNL1       -0.2433
      9 C          62.8644   90.6652   11.4831 C.ar    1  UNL1        0.3342
     10 O          62.5884   91.2214   10.9833 O.2     1  UNL1       -0.2462
     11 N          62.3480   89.3541   10.9690 N.ar    1  UNL1       -0.2770
     12 C          61.4935   89.3159    9.7368 C.3     1  UNL1        0.1351
     13 N          62.8519   84.3129   12.6020 N.pl3   1  UNL1       -0.2925
     14 C          63.3446   83.5312   11.4204 C.3     1  UNL1        0.0936
     15 C          63.3770   82.0437   11.2307 C.3     1  UNL1        0.0385
     16 C          62.9246   80.9703   12.1758 C.3     1  UNL1        0.0704
     17 N          62.3281   81.1194   13.5440 N.3     1  UNL1       -0.2960
     18 C          62.0367   82.3787   14.3050 C.3     1  UNL1        0.0903
     19 C          62.2698   83.8000   13.8858 C.3     1  UNL1        0.1092
     20 H          62.9521   80.5909   14.1537 H       1  UNL1        0.1233
     21 C          61.4795   86.1534   10.2827 C.1     1  UNL1        0.1047
     22 N          60.6350   85.6560    9.1471 N.1     1  UNL1       -0.1907
     23 C          64.4876   86.2879   14.6202 C.3     1  UNL1        0.1332
     24 C          62.4673   86.2275   18.0356 C.3     1  UNL1        0.0261
     25 C          63.1838   86.7400   16.8215 C.2     1  UNL1       -0.0460
     26 C          63.3130   88.2172   16.5948 C.3     1  UNL1        0.0261
     27 C          63.7711   85.7755   15.8343 C.2     1  UNL1       -0.0102
     28 C          64.2354   92.0145   13.2295 C.3     1  UNL1        0.1411
     29 C          65.7085   92.2134   13.4308 C.ar    1  UNL1        0.0132
     30 C          66.2590   92.3921   14.8147 C.ar    1  UNL1        0.0854
     31 C          67.7320   92.5910   15.0160 C.ar    1  UNL1        0.1088
     32 N          68.6546   92.6112   13.8334 N.ar    1  UNL1       -0.2432
     33 C          68.1042   92.4325   12.4496 C.ar    1  UNL1        0.0811
     34 C          69.0268   92.4526   11.2670 C.ar    1  UNL1        0.0191
     35 C          68.4763   92.2739    9.8832 C.ar    1  UNL1        0.0015
     36 C          67.0032   92.0750    9.6819 C.ar    1  UNL1        0.0001
     37 C          66.0806   92.0549   10.8644 C.ar    1  UNL1        0.0013
     38 C          66.6311   92.2336   12.2483 C.ar    1  UNL1        0.0162
     39 C          65.3364   92.3719   15.9972 C.1     1  UNL1        0.1017
     40 N          64.4138   92.3517   17.1797 N.1     1  UNL1       -0.1908
@<TRIPOS>BOND
     1    24    25    1
     2    25    26    1
     3    25    27    2
     4    27    23    1
     5    23     1    1
     6     1     2   ar
     7     2    13    1
     8    13    14    1
     9    14    15    1
    10    15    16    1
    11    16    17    1
    12    17    18    1
    13    18    19    1
    14     2     3   ar
    15     3    21    1
    16    21    22    3
    17     3     4   ar
    18     4     5   ar
    19     5     6   ar
    20     6     7    2
    21     6     8   ar
    22     8    28    1
    23    28    29    1
    24    29    30   ar
    25    30    39    1
    26    39    40    3
    27    30    31   ar
    28    31    32   ar
    29    32    33   ar
    30    33    34   ar
    31    34    35   ar
    32    35    36   ar
    33    36    37   ar
    34    37    38   ar
    35     8     9   ar
    36     9    10    2
    37     9    11   ar
    38    11    12    1
    39     5     1   ar
    40    38    29   ar
    41    19    13    1
    42    11     4   ar
    43    38    33   ar
    44    17    20    1
@<TRIPOS>MOLECULE
*****
 40 44 0 0 0
SMALL
GASTEIGER

@<TRIPOS>ATOM
      1 N          62.9612   85.7444   11.7050 N.ar    1  UNL1       -0.3063
      2 C          63.2301   84.5022   12.5016 C.ar    1  UNL1        0.1240
      3 C          63.6277   84.9172   13.8872 C.ar    1  UNL1        0.1156
      4 C          63.6044   86.4158   13.9468 C.ar    1  UNL1        0.0966
      5 C          63.1925   86.9270   12.5982 C.ar    1  UNL1        0.1349
      6 C          63.0812   88.4035   12.3576 C.ar    1  UNL1        0.2818
      7 O          62.6693   88.9147   11.0089 O.2     1  UNL1       -0.2652
      8 N          63.3819   89.3687   13.4658 N.ar    1  UNL1       -0.2433
      9 C          63.7938   88.8574   14.8145 C.ar    1  UNL1        0.3342
     10 O          63.9877   89.2076   15.5039 O.2     1  UNL1       -0.2462
     11 N          63.9051   87.3810   15.0550 N.ar    1  UNL1       -0.2770
     12 C          64.3170   86.8698   16.4037 C.3     1  UNL1        0.1351
     13 N          63.1207   83.0926   12.0006 N.pl3   1  UNL1       -0.2925
     14 C          63.6635   82.8472   10.6240 C.3     1  UNL1        0.0936
     15 C          63.7026   81.5634    9.8492 C.3     1  UNL1        0.0385
     16 C          63.2087   80.2078   10.2598 C.3     1  UNL1        0.0704
     17 N          62.5537   79.8013   11.5465 N.3     1  UNL1       -0.2960
     18 C          62.2308   80.6500   12.7404 C.3     1  UNL1        0.0903
     19 C          62.4831   82.1148   12.9426 C.3     1  UNL1        0.1092
     20 H          63.1502   79.0599   11.9138 H       1  UNL1        0.1233
     21 C          63.9856   83.9954   15.0151 C.1     1  UNL1        0.1047
     22 N          64.3435   83.0736   16.1431 N.1     1  UNL1       -0.1907
     23 C          62.5356   85.7950   10.2675 C.3     1  UNL1        0.1332
     24 C          59.3064   86.6896    8.1409 C.3     1  UNL1        0.0261
     25 C          60.6659   86.1691    8.5028 C.2     1  UNL1       -0.0460
     26 C          61.5152   85.5023    7.4615 C.3     1  UNL1        0.0261
     27 C          61.1761   86.3155    9.9056 C.2     1  UNL1       -0.0102
     28 C          63.2707   90.8450   13.2253 C.3     1  UNL1        0.1411
     29 C          64.4751   91.6272   12.7920 C.ar    1  UNL1        0.0132
     30 C          64.6724   91.9587   11.3424 C.ar    1  UNL1        0.0854
     31 C          65.8768   92.7408   10.9092 C.ar    1  UNL1        0.1088
     32 N          66.8838   93.1915   11.9256 N.ar    1  UNL1       -0.2432
     33 C          66.6864   92.8600   13.3751 C.ar    1  UNL1        0.0811
     34 C          67.6934   93.3107   14.3914 C.ar    1  UNL1        0.0191
     35 C          67.4960   92.9792   15.8409 C.ar    1  UNL1        0.0015
     36 C          66.2916   92.1971   16.2742 C.ar    1  UNL1        0.0001
     37 C          65.2847   91.7464   15.2579 C.ar    1  UNL1        0.0013
     38 C          65.4820   92.0779   13.8083 C.ar    1  UNL1        0.0162
     39 C          63.6654   91.5080   10.3262 C.1     1  UNL1        0.1017
     40 N          62.6585   91.0573    9.3099 N.1     1  UNL1       -0.1908
@<TRIPOS>BOND
     1    24    25    1
     2    25    26    1
     3    25    27    2
     4    27    23    1
     5    23     1    1
     6     1     2   ar
     7     2    13    1
     8    13    14    1
     9    14    15    1
    10    15    16    1
    11    16    17    1
    12    17    18    1
    13    18    19    1
    14     2     3   ar
    15     3    21    1
    16    21    22    3
    17     3     4   ar
    18     4     5   ar
    19     5     6   ar
    20     6     7    2
    21     6     8   ar
    22     8    28    1
    23    28    29    1
    24    29    30   ar
    25    30    39    1
    26    39    40    3
    27    30    31   ar
    28    31    32   ar
    29    32    33   ar
    30    33    34   ar
    31    34    35   ar
    32    35    36   ar
    33    36    37   ar
    34    37    38   ar
    35     8     9   ar
    36     9    10    2
    37     9    11   ar
    38    11    12    1
    39     5     1   ar
    40    38    29   ar
    41    19    13    1
    42    11     4   ar
    43    38    33   ar
    44    17    20    1
@<TRIPOS>MOLECULE
*****
 40 44 0 0 0
SMALL
GASTEIGER

@<TRIPOS>ATOM
      1 N          63.5601   86.2172   13.0335 N.ar    1  UNL1       -0.3063
      2 C          62.8532   85.3493   12.0350 C.ar    1  UNL1        0.1240
      3 C          62.1284   86.2442   11.0740 C.ar    1  UNL1        0.1156
      4 C          62.3873   87.6652   11.4785 C.ar    1  UNL1        0.0966
      5 C          63.2722   87.6485   12.6895 C.ar    1  UNL1        0.1349
      6 C          63.7014   88.9388   13.3227 C.ar    1  UNL1        0.2818
      7 O          64.5863   88.9221   14.5337 O.2     1  UNL1       -0.2652
      8 N          63.2458   90.2459   12.7447 N.ar    1  UNL1       -0.2433
      9 C          62.3609   90.2626   11.5336 C.ar    1  UNL1        0.3342
     10 O          62.0284   90.8421   11.0987 O.2     1  UNL1       -0.2462
     11 N          61.9317   88.9723   10.9005 N.ar    1  UNL1       -0.2770
     12 C          61.0468   88.9890    9.6894 C.3     1  UNL1        0.1351
     13 N          62.8684   83.8496   12.0032 N.pl3   1  UNL1       -0.2925
     14 C          62.2752   83.1672   13.2001 C.3     1  UNL1        0.0936
     15 C          62.1419   81.6975   13.4682 C.3     1  UNL1        0.0385
     16 C          62.5689   80.5470   12.6055 C.3     1  UNL1        0.0704
     17 N          63.2346   80.5822   11.2618 N.3     1  UNL1       -0.2960
     18 C          63.6378   81.7766   10.4488 C.3     1  UNL1        0.0903
     19 C          63.4748   83.2308   10.7788 C.3     1  UNL1        0.1092
     20 H          62.6072   80.0580   10.6519 H       1  UNL1        0.1233
     21 C          61.2915   85.7968    9.9123 C.1     1  UNL1        0.1047
     22 N          60.4545   85.3493    8.7507 N.1     1  UNL1       -0.1907
     23 C          64.4064   85.7379   14.1755 C.3     1  UNL1        0.1332
     24 C          62.9565   86.3716   17.8151 C.3     1  UNL1        0.0261
     25 C          63.1444   85.7884   16.4459 C.2     1  UNL1       -0.0460
     26 C          62.2580   84.6723   15.9780 C.3     1  UNL1        0.0261
     27 C          64.2185   86.3211   15.5447 C.2     1  UNL1       -0.0102
     28 C          63.6750   91.5362   13.3778 C.3     1  UNL1        0.1411
     29 C          65.0408   92.0904   13.0993 C.ar    1  UNL1        0.0132
     30 C          65.4482   92.4088   11.6912 C.ar    1  UNL1        0.0854
     31 C          66.8140   92.9630   11.4127 C.ar    1  UNL1        0.1088
     32 N          67.7724   93.1987   12.5424 N.ar    1  UNL1       -0.2432
     33 C          67.3649   92.8803   13.9504 C.ar    1  UNL1        0.0811
     34 C          68.3233   93.1161   15.0800 C.ar    1  UNL1        0.0191
     35 C          67.9159   92.7976   16.4881 C.ar    1  UNL1        0.0015
     36 C          66.5501   92.2435   16.7665 C.ar    1  UNL1        0.0001
     37 C          65.5918   92.0077   15.6370 C.ar    1  UNL1        0.0013
     38 C          65.9992   92.3261   14.2289 C.ar    1  UNL1        0.0162
     39 C          64.4899   92.1730   10.5616 C.1     1  UNL1        0.1017
     40 N          63.5315   91.9373    9.4321 N.1     1  UNL1       -0.1908
@<TRIPOS>BOND
     1    24    25    1
     2    25    26    1
     3    25    27    2
     4    27    23    1
     5    23     1    1
     6     1     2   ar
     7     2    13    1
     8    13    14    1
     9    14    15    1
    10    15    16    1
    11    16    17    1
    12    17    18    1
    13    18    19    1
    14     2     3   ar
    15     3    21    1
    16    21    22    3
    17     3     4   ar
    18     4     5   ar
    19     5     6   ar
    20     6     7    2
    21     6     8   ar
    22     8    28    1
    23    28    29    1
    24    29    30   ar
    25    30    39    1
    26    39    40    3
    27    30    31   ar
    28    31    32   ar
    29    32    33   ar
    30    33    34   ar
    31    34    35   ar
    32    35    36   ar
    33    36    37   ar
    34    37    38   ar
    35     8     9   ar
    36     9    10    2
    37     9    11   ar
    38    11    12    1
    39     5     1   ar
    40    38    29   ar
    41    19    13    1
    42    11     4   ar
    43    38    33   ar
    44    17    20    1
