@<TRIPOS>MOLECULE
*****
 38 42 0 0 0
SMALL
GASTEIGER

@<TRIPOS>ATOM
      1 C          63.3114   84.8227   13.2534 C.3     1  UNL1        0.3254
      2 F          64.5149   84.5825   12.3909 F       1  UNL1       -0.1949
      3 F          61.9638   85.1860   13.8032 F       1  UNL1       -0.1949
      4 C          61.0823   86.4374    9.6934 C.ar    1  UNL1        0.0889
      5 C          62.0178   85.2765    9.5291 C.ar    1  UNL1        0.0207
      6 C          62.7608   84.7382   10.7157 C.ar    1  UNL1        0.0217
      7 C          62.5683   85.3609   12.0667 C.ar    1  UNL1        0.1219
      8 N          61.6328   86.5219   12.2311 N.ar    1  UNL1       -0.2412
      9 C          60.8898   87.0601   11.0444 C.ar    1  UNL1        0.1163
     10 O          60.9586   89.5632    8.7640 O.2     1  UNL1       -0.2444
     11 C          60.2823   88.4124    8.0796 C.ar    1  UNL1        0.3523
     12 N          60.3392   86.9757    8.5067 N.ar    1  UNL1       -0.2382
     13 C          59.5225   86.1717    7.5390 C.ar    1  UNL1        0.2073
     14 N          58.9609   87.1116    6.5136 N.ar    1  UNL1       -0.1442
     15 N          59.4305   88.4965    6.8478 N.ar    1  UNL1       -0.2024
     16 C          59.1054   89.7459    6.0842 C.3     1  UNL1        0.1099
     17 C          57.6783   90.1819    5.9318 C.3     1  UNL1        0.0245
     18 C          57.3531   91.4313    5.1682 C.3     1  UNL1        0.0020
     19 C          58.4552   92.2448    4.5569 C.3     1  UNL1        0.0001
     20 C          59.8824   91.8089    4.7093 C.3     1  UNL1        0.0020
     21 C          60.2075   90.5594    5.4729 C.3     1  UNL1        0.0245
     22 C          64.0544   84.2844   14.4401 C.3     1  UNL1        0.1932
     23 O          64.7975   83.7461   15.6267 O.3     1  UNL1       -0.3755
     24 H          65.0875   82.8390   15.4424 H       1  UNL1        0.2110
     25 C          63.8414   85.5819   15.1619 C.ar    1  UNL1        0.0368
     26 C          64.4602   86.8431   14.6361 C.ar    1  UNL1        0.0028
     27 C          64.2472   88.1406   15.3581 C.ar    1  UNL1        0.0295
     28 C          63.4154   88.1769   16.6058 C.ar    1  UNL1        0.1424
     29 F          63.2024   89.4744   17.3277 F       1  UNL1       -0.2041
     30 C          62.7966   86.9157   17.1316 C.ar    1  UNL1        0.0590
     31 C          63.0096   85.6182   16.4097 C.ar    1  UNL1        0.1408
     32 F          62.3908   84.3570   16.9355 F       1  UNL1       -0.2043
     33 C          64.2674   82.9870   13.7182 C.3     1  UNL1        0.1679
     34 N          63.1936   81.9397   13.7252 N.ar    1  UNL1       -0.2078
     35 C          63.1453   80.7205   12.8526 C.ar    1  UNL1        0.2216
     36 N          61.9013   79.9550   13.1942 N.ar    1  UNL1       -0.1048
     37 N          61.1807   80.7012   14.2778 N.ar    1  UNL1       -0.0226
     38 N          61.9794   81.9277   14.6059 N.ar    1  UNL1       -0.0428
@<TRIPOS>BOND
     1    10    11    2
     2    11    12   ar
     3    12     4    1
     4     4     5   ar
     5     5     6   ar
     6     6     7   ar
     7     7     1    1
     8     1     2    1
     9     1     3    1
    10     1    22    1
    11    22    23    1
    12    22    33    1
    13    33    34    1
    14    34    35   ar
    15    35    36   ar
    16    36    37   ar
    17    37    38   ar
    18    22    25    1
    19    25    26   ar
    20    26    27   ar
    21    27    28   ar
    22    28    29    1
    23    28    30   ar
    24    30    31   ar
    25    31    32    1
    26     7     8   ar
    27     8     9   ar
    28    12    13   ar
    29    13    14   ar
    30    14    15   ar
    31    15    16    1
    32    16    17    1
    33    17    18    1
    34    18    19    1
    35    19    20    1
    36    20    21    1
    37    15    11   ar
    38    21    16    1
    39     9     4   ar
    40    38    34   ar
    41    31    25   ar
    42    23    24    1
@<TRIPOS>MOLECULE
*****
 38 42 0 0 0
SMALL
GASTEIGER

@<TRIPOS>ATOM
      1 C          63.2403   85.0220   13.1756 C.3     1  UNL1        0.3254
      2 F          64.4711   85.7242   12.6838 F       1  UNL1       -0.1949
      3 F          61.8566   84.4783   13.3755 F       1  UNL1       -0.1949
      4 C          60.8922   86.7294    9.7375 C.ar    1  UNL1        0.0889
      5 C          61.7003   85.4802    9.5468 C.ar    1  UNL1        0.0207
      6 C          62.4830   84.9111   10.6928 C.ar    1  UNL1        0.0217
      7 C          62.4576   85.5912   12.0296 C.ar    1  UNL1        0.1219
      8 N          61.6495   86.8404   12.2202 N.ar    1  UNL1       -0.2412
      9 C          60.8668   87.4095   11.0742 C.ar    1  UNL1        0.1163
     10 O          61.2291   89.7235    8.4837 O.2     1  UNL1       -0.2444
     11 C          60.2644   88.6749    8.0151 C.ar    1  UNL1        0.3523
     12 N          60.1095   87.2986    8.5914 N.ar    1  UNL1       -0.2382
     13 C          59.0345   86.5916    7.8204 C.ar    1  UNL1        0.2073
     14 N          58.5250   87.5308    6.7677 N.ar    1  UNL1       -0.1442
     15 N          59.2851   88.8184    6.8880 N.ar    1  UNL1       -0.2024
     16 C          59.0987   90.0356    6.0316 C.3     1  UNL1        0.1099
     17 C          60.2920   90.7299    5.4450 C.3     1  UNL1        0.0245
     18 C          60.1055   91.9472    4.5886 C.3     1  UNL1        0.0020
     19 C          58.7258   92.4702    4.3188 C.3     1  UNL1        0.0001
     20 C          57.5325   91.7759    4.9054 C.3     1  UNL1        0.0020
     21 C          57.7189   90.5587    5.7618 C.3     1  UNL1        0.0245
     22 C          64.0230   84.4528   14.3216 C.3     1  UNL1        0.1932
     23 O          64.8057   83.8836   15.4677 O.3     1  UNL1       -0.3755
     24 H          65.3166   84.5901   15.8929 H       1  UNL1        0.2110
     25 C          63.4618   83.0928   14.0294 C.ar    1  UNL1        0.0368
     26 C          62.3486   82.5440   14.8718 C.ar    1  UNL1        0.0028
     27 C          61.7874   81.1839   14.5796 C.ar    1  UNL1        0.0295
     28 C          62.3394   80.3727   13.4450 C.ar    1  UNL1        0.1424
     29 F          61.7782   79.0127   13.1527 F       1  UNL1       -0.2041
     30 C          63.4526   80.9216   12.6026 C.ar    1  UNL1        0.0590
     31 C          64.0138   82.2816   12.8948 C.ar    1  UNL1        0.1408
     32 F          65.1270   82.8304   12.0525 F       1  UNL1       -0.2043
     33 C          64.5842   85.8128   14.6139 C.3     1  UNL1        0.1679
     34 N          63.8545   86.7427   15.5374 N.ar    1  UNL1       -0.2078
     35 C          63.1802   86.3603   16.8217 C.ar    1  UNL1        0.2216
     36 N          62.5800   87.5996   17.4168 N.ar    1  UNL1       -0.1048
     37 N          62.8833   88.7477   16.5004 N.ar    1  UNL1       -0.0226
     38 N          63.6710   88.2181   15.3389 N.ar    1  UNL1       -0.0428
@<TRIPOS>BOND
     1    10    11    2
     2    11    12   ar
     3    12     4    1
     4     4     5   ar
     5     5     6   ar
     6     6     7   ar
     7     7     1    1
     8     1     2    1
     9     1     3    1
    10     1    22    1
    11    22    23    1
    12    22    33    1
    13    33    34    1
    14    34    35   ar
    15    35    36   ar
    16    36    37   ar
    17    37    38   ar
    18    22    25    1
    19    25    26   ar
    20    26    27   ar
    21    27    28   ar
    22    28    29    1
    23    28    30   ar
    24    30    31   ar
    25    31    32    1
    26     7     8   ar
    27     8     9   ar
    28    12    13   ar
    29    13    14   ar
    30    14    15   ar
    31    15    16    1
    32    16    17    1
    33    17    18    1
    34    18    19    1
    35    19    20    1
    36    20    21    1
    37    15    11   ar
    38    21    16    1
    39     9     4   ar
    40    38    34   ar
    41    31    25   ar
    42    23    24    1
@<TRIPOS>MOLECULE
*****
 38 42 0 0 0
SMALL
GASTEIGER

@<TRIPOS>ATOM
      1 C          65.3387   92.5360   12.2859 C.3     1  UNL1        0.3254
      2 F          65.7792   92.4260   10.8563 F       1  UNL1       -0.1949
      3 F          64.7513   92.3179   13.6488 F       1  UNL1       -0.1949
      4 C          63.3559   88.5076   11.9851 C.ar    1  UNL1        0.0889
      5 C          63.2583   89.4785   10.8459 C.ar    1  UNL1        0.0207
      6 C          63.9192   90.8213   10.9462 C.ar    1  UNL1        0.0217
      7 C          64.6777   91.1932   12.1857 C.ar    1  UNL1        0.1219
      8 N          64.7754   90.2223   13.3249 N.ar    1  UNL1       -0.2412
      9 C          64.1144   88.8795   13.2246 C.ar    1  UNL1        0.1163
     10 O          64.3003   85.7857   13.5177 O.2     1  UNL1       -0.2444
     11 C          63.1291   85.9136   12.5894 C.ar    1  UNL1        0.3523
     12 N          62.6949   87.1648   11.8849 N.ar    1  UNL1       -0.2382
     13 C          61.4839   86.8373   11.0627 C.ar    1  UNL1        0.2073
     14 N          61.1695   85.3838   11.2589 N.ar    1  UNL1       -0.1442
     15 N          62.1864   84.8129   12.2025 N.ar    1  UNL1       -0.2024
     16 C          62.2493   83.3910   12.6760 C.3     1  UNL1        0.1099
     17 C          62.6118   82.2964   11.7167 C.3     1  UNL1        0.0245
     18 C          62.6748   80.8745   12.1902 C.3     1  UNL1        0.0020
     19 C          62.3753   80.5473   13.6231 C.3     1  UNL1        0.0001
     20 C          62.0128   81.6419   14.5825 C.3     1  UNL1        0.0020
     21 C          61.9498   83.0638   14.1089 C.3     1  UNL1        0.0245
     22 C          65.9996   93.8788   12.3862 C.3     1  UNL1        0.1932
     23 O          66.6605   95.2217   12.4864 O.3     1  UNL1       -0.3755
     24 H          66.2939   95.8137   11.8111 H       1  UNL1        0.2110
     25 C          66.8344   93.3826   13.5293 C.ar    1  UNL1        0.0368
     26 C          66.5785   93.8860   14.9189 C.ar    1  UNL1        0.0028
     27 C          67.4134   93.3897   16.0620 C.ar    1  UNL1        0.0295
     28 C          68.5041   92.3900   15.8155 C.ar    1  UNL1        0.1424
     29 F          69.3391   91.8937   16.9587 F       1  UNL1       -0.2041
     30 C          68.7601   91.8866   14.4259 C.ar    1  UNL1        0.0590
     31 C          67.9252   92.3828   13.2828 C.ar    1  UNL1        0.1408
     32 F          68.1812   91.8794   11.8932 F       1  UNL1       -0.2043
     33 C          65.1647   94.3751   11.2431 C.3     1  UNL1        0.1679
     34 N          65.7960   95.1845   10.1493 N.ar    1  UNL1       -0.2078
     35 C          65.1701   96.3492    9.4408 C.ar    1  UNL1        0.2216
     36 N          66.1513   96.8558    8.4256 N.ar    1  UNL1       -0.1048
     37 N          67.3835   96.0042    8.5065 N.ar    1  UNL1       -0.0226
     38 N          67.1639   94.9713    9.5718 N.ar    1  UNL1       -0.0428
@<TRIPOS>BOND
     1    10    11    2
     2    11    12   ar
     3    12     4    1
     4     4     5   ar
     5     5     6   ar
     6     6     7   ar
     7     7     1    1
     8     1     2    1
     9     1     3    1
    10     1    22    1
    11    22    23    1
    12    22    33    1
    13    33    34    1
    14    34    35   ar
    15    35    36   ar
    16    36    37   ar
    17    37    38   ar
    18    22    25    1
    19    25    26   ar
    20    26    27   ar
    21    27    28   ar
    22    28    29    1
    23    28    30   ar
    24    30    31   ar
    25    31    32    1
    26     7     8   ar
    27     8     9   ar
    28    12    13   ar
    29    13    14   ar
    30    14    15   ar
    31    15    16    1
    32    16    17    1
    33    17    18    1
    34    18    19    1
    35    19    20    1
    36    20    21    1
    37    15    11   ar
    38    21    16    1
    39     9     4   ar
    40    38    34   ar
    41    31    25   ar
    42    23    24    1
