@<TRIPOS>MOLECULE
*****
 31 34 0 0 0
SMALL
GASTEIGER

@<TRIPOS>ATOM
      1 O          63.8859   91.9659   13.4720 O.3     1  UNL1       -0.3755
      2 C          63.8865   90.4731   13.6193 C.3     1  UNL1        0.1914
      3 H          64.4894   92.3554   14.1239 H       1  UNL1        0.2110
      4 C          62.8965   90.3621   12.4979 C.ar    1  UNL1        0.0368
      5 C          61.5298   89.8008   12.7569 C.ar    1  UNL1        0.0028
      6 C          60.5397   89.6898   11.6355 C.ar    1  UNL1        0.0295
      7 C          60.9163   90.1401   10.2552 C.ar    1  UNL1        0.1424
      8 F          59.9262   90.0291    9.1338 F       1  UNL1       -0.2041
      9 C          62.2830   90.7015    9.9962 C.ar    1  UNL1        0.0590
     10 C          63.2731   90.8125   11.1176 C.ar    1  UNL1        0.1408
     11 F          64.6397   91.3739   10.8586 F       1  UNL1       -0.2043
     12 C          63.8871   88.9804   13.7665 C.3     1  UNL1        0.3253
     13 F          63.9572   89.1275   15.2576 F       1  UNL1       -0.1949
     14 F          63.8192   88.4765   12.3554 F       1  UNL1       -0.1949
     15 C          63.8876   87.4876   13.9139 C.ar    1  UNL1        0.1217
     16 C          64.5299   86.8524   15.1114 C.ar    1  UNL1        0.0202
     17 C          64.5305   85.3597   15.2587 C.ar    1  UNL1        0.0029
     18 C          63.8888   84.5022   14.2086 C.ar    1  UNL1        0.0182
     19 C          63.8894   83.0094   14.3559 C.ar    1  UNL1        0.0082
     20 C          63.2477   82.1519   13.3057 C.ar    1  UNL1        0.0347
     21 BR         63.2483   80.6591   13.4530 Br      1  UNL1       -0.0490
     22 C          62.6055   82.7871   12.1082 C.ar    1  UNL1        0.0082
     23 C          62.6049   84.2798   11.9608 C.ar    1  UNL1        0.0196
     24 C          63.2466   85.1374   13.0110 C.ar    1  UNL1        0.0811
     25 N          63.2460   86.6301   12.8637 N.ar    1  UNL1       -0.2442
     26 C          64.8765   90.5841   14.7406 C.3     1  UNL1        0.1461
     27 N          65.9782   91.5999   14.6708 N.ar    1  UNL1       -0.2874
     28 C          66.9819   91.7372   13.5647 C.ar    1  UNL1        0.2028
     29 N          67.8935   92.8788   13.9051 N.ar    1  UNL1       -0.1254
     30 N          67.4531   93.4470   15.2216 N.ar    1  UNL1       -0.1254
     31 C          66.2693   92.6566   15.6948 C.ar    1  UNL1        0.2028
@<TRIPOS>BOND
     1     1     2    1
     2     2    26    1
     3    26    27    1
     4    27    28   ar
     5    28    29   ar
     6    29    30   ar
     7    30    31   ar
     8     2     4    1
     9     4     5   ar
    10     5     6   ar
    11     6     7   ar
    12     7     8    1
    13     7     9   ar
    14     9    10   ar
    15    10    11    1
    16     2    12    1
    17    12    13    1
    18    12    14    1
    19    12    15    1
    20    15    16   ar
    21    16    17   ar
    22    17    18   ar
    23    18    19   ar
    24    19    20   ar
    25    20    21    1
    26    20    22   ar
    27    22    23   ar
    28    23    24   ar
    29    24    25   ar
    30    31    27   ar
    31    10     4   ar
    32    25    15   ar
    33    24    18   ar
    34     1     3    1
@<TRIPOS>MOLECULE
*****
 31 34 0 0 0
SMALL
GASTEIGER

@<TRIPOS>ATOM
      1 O          64.7398   83.7618   14.7104 O.3     1  UNL1       -0.3755
      2 C          64.0388   84.6618   13.7364 C.3     1  UNL1        0.1914
      3 H          65.0771   84.2882   15.4521 H       1  UNL1        0.2110
      4 C          63.7335   83.4802   12.8644 C.ar    1  UNL1        0.0368
      5 C          64.3983   83.3437   11.5266 C.ar    1  UNL1        0.0028
      6 C          64.0930   82.1621   10.6545 C.ar    1  UNL1        0.0295
      7 C          63.1230   81.1169   11.1201 C.ar    1  UNL1        0.1424
      8 F          62.8177   79.9353   10.2479 F       1  UNL1       -0.2041
      9 C          62.4582   81.2534   12.4578 C.ar    1  UNL1        0.0590
     10 C          62.7635   82.4351   13.3299 C.ar    1  UNL1        0.1408
     11 F          62.0987   82.5715   14.6676 F       1  UNL1       -0.2043
     12 C          63.3377   85.5617   12.7625 C.3     1  UNL1        0.3253
     13 F          64.2532   86.6872   13.1434 F       1  UNL1       -0.1949
     14 F          62.2797   84.6874   12.1572 F       1  UNL1       -0.1949
     15 C          62.6366   86.4617   11.7885 C.ar    1  UNL1        0.1217
     16 C          62.7734   87.9505   11.9108 C.ar    1  UNL1        0.0202
     17 C          62.0723   88.8505   10.9369 C.ar    1  UNL1        0.0029
     18 C          61.2346   88.2617    9.8407 C.ar    1  UNL1        0.0182
     19 C          60.5335   89.1618    8.8668 C.ar    1  UNL1        0.0082
     20 C          59.6958   88.5730    7.7706 C.ar    1  UNL1        0.0347
     21 BR         58.9947   89.4730    6.7967 Br      1  UNL1       -0.0490
     22 C          59.5591   87.0843    7.6484 C.ar    1  UNL1        0.0082
     23 C          60.2601   86.1843    8.6223 C.ar    1  UNL1        0.0196
     24 C          61.0979   86.7730    9.7185 C.ar    1  UNL1        0.0811
     25 N          61.7989   85.8730   10.6924 N.ar    1  UNL1       -0.2442
     26 C          64.3440   85.8434   14.6085 C.3     1  UNL1        0.1461
     27 N          63.4525   86.1684   15.7703 N.ar    1  UNL1       -0.2874
     28 C          62.4740   85.2347   16.4190 C.ar    1  UNL1        0.2028
     29 N          61.7998   85.9734   17.5369 N.ar    1  UNL1       -0.1254
     30 N          62.3616   87.3636   17.5792 N.ar    1  UNL1       -0.1254
     31 C          63.3831   87.4840   16.4874 C.ar    1  UNL1        0.2028
@<TRIPOS>BOND
     1     1     2    1
     2     2    26    1
     3    26    27    1
     4    27    28   ar
     5    28    29   ar
     6    29    30   ar
     7    30    31   ar
     8     2     4    1
     9     4     5   ar
    10     5     6   ar
    11     6     7   ar
    12     7     8    1
    13     7     9   ar
    14     9    10   ar
    15    10    11    1
    16     2    12    1
    17    12    13    1
    18    12    14    1
    19    12    15    1
    20    15    16   ar
    21    16    17   ar
    22    17    18   ar
    23    18    19   ar
    24    19    20   ar
    25    20    21    1
    26    20    22   ar
    27    22    23   ar
    28    23    24   ar
    29    24    25   ar
    30    31    27   ar
    31    10     4   ar
    32    25    15   ar
    33    24    18   ar
    34     1     3    1
@<TRIPOS>MOLECULE
*****
 31 34 0 0 0
SMALL
GASTEIGER

@<TRIPOS>ATOM
      1 O          64.7390   83.2131   15.4353 O.3     1  UNL1       -0.3755
      2 C          64.1004   83.8481   14.2356 C.3     1  UNL1        0.1914
      3 H          65.3644   83.8365   15.8367 H       1  UNL1        0.2110
      4 C          63.3004   82.6011   14.0014 C.ar    1  UNL1        0.0368
      5 C          61.9701   82.4265   14.6720 C.ar    1  UNL1        0.0028
      6 C          61.1701   81.1794   14.4378 C.ar    1  UNL1        0.0295
      7 C          61.7003   80.1071   13.5329 C.ar    1  UNL1        0.1424
      8 F          60.9003   78.8600   13.2987 F       1  UNL1       -0.2041
      9 C          63.0306   80.2817   12.8623 C.ar    1  UNL1        0.0590
     10 C          63.8307   81.5287   13.0965 C.ar    1  UNL1        0.1408
     11 F          65.1610   81.7034   12.4259 F       1  UNL1       -0.2043
     12 C          63.4619   84.4831   13.0360 C.3     1  UNL1        0.3253
     13 F          64.7361   84.3069   12.2645 F       1  UNL1       -0.1949
     14 F          62.0710   84.8077   13.4944 F       1  UNL1       -0.1949
     15 C          62.8234   85.1181   11.8364 C.ar    1  UNL1        0.1217
     16 C          63.0707   84.5543   10.4685 C.ar    1  UNL1        0.0202
     17 C          62.4323   85.1893    9.2689 C.ar    1  UNL1        0.0029
     18 C          61.5464   86.3880    9.4371 C.ar    1  UNL1        0.0182
     19 C          60.9079   87.0230    8.2374 C.ar    1  UNL1        0.0082
     20 C          60.0221   88.2217    8.4056 C.ar    1  UNL1        0.0347
     21 BR         59.3835   88.8567    7.2060 Br      1  UNL1       -0.0490
     22 C          59.7747   88.7855    9.7735 C.ar    1  UNL1        0.0082
     23 C          60.4132   88.1505   10.9731 C.ar    1  UNL1        0.0196
     24 C          61.2991   86.9517   10.8049 C.ar    1  UNL1        0.0811
     25 N          61.9375   86.3168   12.0046 N.ar    1  UNL1       -0.2442
     26 C          64.9004   85.0952   14.4699 C.3     1  UNL1        0.1461
     27 N          64.2763   86.2664   15.1691 N.ar    1  UNL1       -0.2874
     28 C          64.3488   87.6980   14.7273 C.ar    1  UNL1        0.2028
     29 N          63.5875   88.5279   15.7180 N.ar    1  UNL1       -0.1254
     30 N          63.0445   87.6092   16.7722 N.ar    1  UNL1       -0.1254
     31 C          63.4703   86.2115   16.4329 C.ar    1  UNL1        0.2028
@<TRIPOS>BOND
     1     1     2    1
     2     2    26    1
     3    26    27    1
     4    27    28   ar
     5    28    29   ar
     6    29    30   ar
     7    30    31   ar
     8     2     4    1
     9     4     5   ar
    10     5     6   ar
    11     6     7   ar
    12     7     8    1
    13     7     9   ar
    14     9    10   ar
    15    10    11    1
    16     2    12    1
    17    12    13    1
    18    12    14    1
    19    12    15    1
    20    15    16   ar
    21    16    17   ar
    22    17    18   ar
    23    18    19   ar
    24    19    20   ar
    25    20    21    1
    26    20    22   ar
    27    22    23   ar
    28    23    24   ar
    29    24    25   ar
    30    31    27   ar
    31    10     4   ar
    32    25    15   ar
    33    24    18   ar
    34     1     3    1
@<TRIPOS>MOLECULE
*****
 31 34 0 0 0
SMALL
GASTEIGER

@<TRIPOS>ATOM
      1 O          65.3127   91.1136   15.4665 O.3     1  UNL1       -0.3755
      2 C          64.4198   90.6559   14.3514 C.3     1  UNL1        0.1914
      3 H          65.7100   91.9672   15.2329 H       1  UNL1        0.2110
      4 C          64.0839   89.4178   15.1287 C.ar    1  UNL1        0.0368
      5 C          64.4695   88.0698   14.5954 C.ar    1  UNL1        0.0028
      6 C          64.1337   86.8316   15.3727 C.ar    1  UNL1        0.0295
      7 C          63.4123   86.9414   16.6833 C.ar    1  UNL1        0.1424
      8 F          63.0764   85.7032   17.4605 F       1  UNL1       -0.2041
      9 C          63.0267   88.2893   17.2165 C.ar    1  UNL1        0.0590
     10 C          63.3626   89.5276   16.4393 C.ar    1  UNL1        0.1408
     11 F          62.9770   90.8755   16.9726 F       1  UNL1       -0.2043
     12 C          63.5269   90.1982   13.2365 C.3     1  UNL1        0.3253
     13 F          62.3517   90.2206   14.1684 F       1  UNL1       -0.1949
     14 F          64.4510   90.0657   12.0625 F       1  UNL1       -0.1949
     15 C          62.6338   89.7404   12.1215 C.ar    1  UNL1        0.1217
     16 C          61.7328   90.7212   11.4316 C.ar    1  UNL1        0.0202
     17 C          60.8398   90.2636   10.3167 C.ar    1  UNL1        0.0029
     18 C          60.8479   88.8251    9.8917 C.ar    1  UNL1        0.0182
     19 C          59.9549   88.3673    8.7768 C.ar    1  UNL1        0.0082
     20 C          59.9630   86.9288    8.3518 C.ar    1  UNL1        0.0347
     21 BR         59.0700   86.4711    7.2369 Br      1  UNL1       -0.0490
     22 C          60.8641   85.9480    9.0418 C.ar    1  UNL1        0.0082
     23 C          61.7570   86.4057   10.1567 C.ar    1  UNL1        0.0196
     24 C          61.7490   87.8443   10.5817 C.ar    1  UNL1        0.0811
     25 N          62.6419   88.3019   11.6966 N.ar    1  UNL1       -0.2442
     26 C          64.7556   91.8940   13.5742 C.3     1  UNL1        0.1461
     27 N          66.0994   92.0283   12.9212 N.ar    1  UNL1       -0.2874
     28 C          66.3643   92.5928   11.5570 C.ar    1  UNL1        0.2028
     29 N          67.8428   92.5349   11.3104 N.ar    1  UNL1       -0.1254
     30 N          68.4916   91.9346   12.5223 N.ar    1  UNL1       -0.1254
     31 C          67.4142   91.6215   13.5178 C.ar    1  UNL1        0.2028
@<TRIPOS>BOND
     1     1     2    1
     2     2    26    1
     3    26    27    1
     4    27    28   ar
     5    28    29   ar
     6    29    30   ar
     7    30    31   ar
     8     2     4    1
     9     4     5   ar
    10     5     6   ar
    11     6     7   ar
    12     7     8    1
    13     7     9   ar
    14     9    10   ar
    15    10    11    1
    16     2    12    1
    17    12    13    1
    18    12    14    1
    19    12    15    1
    20    15    16   ar
    21    16    17   ar
    22    17    18   ar
    23    18    19   ar
    24    19    20   ar
    25    20    21    1
    26    20    22   ar
    27    22    23   ar
    28    23    24   ar
    29    24    25   ar
    30    31    27   ar
    31    10     4   ar
    32    25    15   ar
    33    24    18   ar
    34     1     3    1
@<TRIPOS>MOLECULE
*****
 31 34 0 0 0
SMALL
GASTEIGER

@<TRIPOS>ATOM
      1 O          59.7856   85.9847    9.3089 O.3     1  UNL1       -0.3755
      2 C          60.6880   87.0342    9.8870 C.3     1  UNL1        0.1914
      3 H          58.9539   86.3946    9.0241 H       1  UNL1        0.2110
      4 C          61.7331   85.9908   10.1497 C.ar    1  UNL1        0.0368
      5 C          62.0335   85.5678   11.5572 C.ar    1  UNL1        0.0028
      6 C          63.0786   84.5244   11.8199 C.ar    1  UNL1        0.0295
      7 C          63.8234   83.9040   10.6751 C.ar    1  UNL1        0.1424
      8 F          64.8685   82.8605   10.9379 F       1  UNL1       -0.2041
      9 C          63.5230   84.3269    9.2677 C.ar    1  UNL1        0.0590
     10 C          62.4779   85.3704    9.0050 C.ar    1  UNL1        0.1408
     11 F          62.1775   85.7933    7.5976 F       1  UNL1       -0.2043
     12 C          61.5904   88.0837   10.4651 C.3     1  UNL1        0.3253
     13 F          60.6014   88.3277   11.5661 F       1  UNL1       -0.1949
     14 F          62.7685   88.1008    9.5368 F       1  UNL1       -0.1949
     15 C          62.4929   89.1332   11.0433 C.ar    1  UNL1        0.1217
     16 C          62.8185   90.3629   10.2486 C.ar    1  UNL1        0.0202
     17 C          63.7209   91.4124   10.8267 C.ar    1  UNL1        0.0029
     18 C          64.2976   91.2321   12.1995 C.ar    1  UNL1        0.0182
     19 C          65.2001   92.2816   12.7777 C.ar    1  UNL1        0.0082
     20 C          65.7768   92.1013   14.1506 C.ar    1  UNL1        0.0347
     21 BR         66.6793   93.1508   14.7288 Br      1  UNL1       -0.0490
     22 C          65.4512   90.8716   14.9453 C.ar    1  UNL1        0.0082
     23 C          64.5488   89.8221   14.3672 C.ar    1  UNL1        0.0196
     24 C          63.9720   90.0023   12.9943 C.ar    1  UNL1        0.0811
     25 N          63.0696   88.9529   12.4162 N.ar    1  UNL1       -0.2442
     26 C          59.6429   88.0776    9.6243 C.3     1  UNL1        0.1461
     27 N          59.5564   88.7298    8.2762 N.ar    1  UNL1       -0.2874
     28 C          58.8617   88.1717    7.0697 C.ar    1  UNL1        0.2028
     29 N          59.0254   89.1516    5.9459 N.ar    1  UNL1       -0.1254
     30 N          59.8214   90.3154    6.4579 N.ar    1  UNL1       -0.1254
     31 C          60.1495   90.0547    7.8981 C.ar    1  UNL1        0.2028
@<TRIPOS>BOND
     1     1     2    1
     2     2    26    1
     3    26    27    1
     4    27    28   ar
     5    28    29   ar
     6    29    30   ar
     7    30    31   ar
     8     2     4    1
     9     4     5   ar
    10     5     6   ar
    11     6     7   ar
    12     7     8    1
    13     7     9   ar
    14     9    10   ar
    15    10    11    1
    16     2    12    1
    17    12    13    1
    18    12    14    1
    19    12    15    1
    20    15    16   ar
    21    16    17   ar
    22    17    18   ar
    23    18    19   ar
    24    19    20   ar
    25    20    21    1
    26    20    22   ar
    27    22    23   ar
    28    23    24   ar
    29    24    25   ar
    30    31    27   ar
    31    10     4   ar
    32    25    15   ar
    33    24    18   ar
    34     1     3    1
@<TRIPOS>MOLECULE
*****
 31 34 0 0 0
SMALL
GASTEIGER

@<TRIPOS>ATOM
      1 O          60.5095   86.0835    8.9350 O.3     1  UNL1       -0.3755
      2 C          61.3463   86.9514    9.8275 C.3     1  UNL1        0.1914
      3 H          59.8511   86.6297    8.4777 H       1  UNL1        0.2110
      4 C          62.1304   85.7487   10.2619 C.ar    1  UNL1        0.0368
      5 C          61.9607   85.2036   11.6490 C.ar    1  UNL1        0.0028
      6 C          62.7447   84.0009   12.0833 C.ar    1  UNL1        0.0295
      7 C          63.6985   83.3432   11.1306 C.ar    1  UNL1        0.1424
      8 F          64.4826   82.1405   11.5650 F       1  UNL1       -0.2041
      9 C          63.8683   83.8883    9.7435 C.ar    1  UNL1        0.0590
     10 C          63.0842   85.0911    9.3091 C.ar    1  UNL1        0.1408
     11 F          63.2539   85.6361    7.9220 F       1  UNL1       -0.2043
     12 C          62.1831   87.8193   10.7200 C.3     1  UNL1        0.3253
     13 F          62.7611   88.5009    9.5154 F       1  UNL1       -0.1949
     14 F          61.8248   87.3679   12.1049 F       1  UNL1       -0.1949
     15 C          63.0200   88.6871   11.6126 C.ar    1  UNL1        0.1217
     16 C          63.3903   88.2132   12.9867 C.ar    1  UNL1        0.0202
     17 C          64.2271   89.0810   13.8792 C.ar    1  UNL1        0.0029
     18 C          64.6936   90.4227   13.3976 C.ar    1  UNL1        0.0182
     19 C          65.5304   91.2906   14.2902 C.ar    1  UNL1        0.0082
     20 C          65.9969   92.6324   13.8086 C.ar    1  UNL1        0.0347
     21 BR         66.8337   93.5003   14.7011 Br      1  UNL1       -0.0490
     22 C          65.6265   93.1064   12.4345 C.ar    1  UNL1        0.0082
     23 C          64.7897   92.2386   11.5419 C.ar    1  UNL1        0.0196
     24 C          64.3232   90.8967   12.0235 C.ar    1  UNL1        0.0811
     25 N          63.4864   90.0289   11.1310 N.ar    1  UNL1       -0.2442
     26 C          60.5623   88.1542    9.3932 C.3     1  UNL1        0.1461
     27 N          59.9186   89.0402   10.4183 N.ar    1  UNL1       -0.2874
     28 C          59.1665   88.5817   11.6324 C.ar    1  UNL1        0.2028
     29 N          58.6972   89.7984   12.3737 N.ar    1  UNL1       -0.1254
     30 N          59.1592   91.0088   11.6177 N.ar    1  UNL1       -0.1254
     31 C          59.9141   90.5401   10.4092 C.ar    1  UNL1        0.2028
@<TRIPOS>BOND
     1     1     2    1
     2     2    26    1
     3    26    27    1
     4    27    28   ar
     5    28    29   ar
     6    29    30   ar
     7    30    31   ar
     8     2     4    1
     9     4     5   ar
    10     5     6   ar
    11     6     7   ar
    12     7     8    1
    13     7     9   ar
    14     9    10   ar
    15    10    11    1
    16     2    12    1
    17    12    13    1
    18    12    14    1
    19    12    15    1
    20    15    16   ar
    21    16    17   ar
    22    17    18   ar
    23    18    19   ar
    24    19    20   ar
    25    20    21    1
    26    20    22   ar
    27    22    23   ar
    28    23    24   ar
    29    24    25   ar
    30    31    27   ar
    31    10     4   ar
    32    25    15   ar
    33    24    18   ar
    34     1     3    1
@<TRIPOS>MOLECULE
*****
 31 34 0 0 0
SMALL
GASTEIGER

@<TRIPOS>ATOM
      1 O          64.6500   82.3434   14.2022 O.3     1  UNL1       -0.3755
      2 C          64.0085   83.1796   13.1347 C.3     1  UNL1        0.1914
      3 H          65.0675   82.9223   14.8591 H       1  UNL1        0.2110
      4 C          63.5505   81.9346   12.4347 C.ar    1  UNL1        0.0368
      5 C          63.8358   81.7473   10.9740 C.ar    1  UNL1        0.0028
      6 C          63.3779   80.5023   10.2739 C.ar    1  UNL1        0.0295
      7 C          62.6345   79.4445   11.0346 C.ar    1  UNL1        0.1424
      8 F          62.1766   78.1994   10.3344 F       1  UNL1       -0.2041
      9 C          62.3492   79.6317   12.4952 C.ar    1  UNL1        0.0590
     10 C          62.8072   80.8768   13.1953 C.ar    1  UNL1        0.1408
     11 F          62.5219   81.0640   14.6559 F       1  UNL1       -0.2043
     12 C          63.3671   84.0158   12.0673 C.3     1  UNL1        0.3253
     13 F          62.0213   83.7669   12.6811 F       1  UNL1       -0.1949
     14 F          64.5177   84.4596   11.2134 F       1  UNL1       -0.1949
     15 C          62.7255   84.8519   10.9999 C.ar    1  UNL1        0.1217
     16 C          63.0360   84.5918    9.5556 C.ar    1  UNL1        0.0202
     17 C          62.3945   85.4279    8.4882 C.ar    1  UNL1        0.0029
     18 C          61.4426   86.5241    8.8650 C.ar    1  UNL1        0.0182
     19 C          60.8010   87.3602    7.7976 C.ar    1  UNL1        0.0082
     20 C          59.8491   88.4564    8.1744 C.ar    1  UNL1        0.0347
     21 BR         59.2076   89.2926    7.1070 Br      1  UNL1       -0.0490
     22 C          59.5386   88.7166    9.6187 C.ar    1  UNL1        0.0082
     23 C          60.1801   87.8805   10.6861 C.ar    1  UNL1        0.0196
     24 C          61.1321   86.7842   10.3093 C.ar    1  UNL1        0.0811
     25 N          61.7736   85.9481   11.3767 N.ar    1  UNL1       -0.2442
     26 C          64.4665   84.4247   13.8347 C.3     1  UNL1        0.1461
     27 N          63.6551   84.9937   14.9608 N.ar    1  UNL1       -0.2874
     28 C          63.9507   86.2600   15.7085 C.ar    1  UNL1        0.2028
     29 N          62.8839   86.4451   16.7466 N.ar    1  UNL1       -0.1254
     30 N          61.9289   85.2932   16.6405 N.ar    1  UNL1       -0.1254
     31 C          62.4056   84.3962   15.5368 C.ar    1  UNL1        0.2028
@<TRIPOS>BOND
     1     1     2    1
     2     2    26    1
     3    26    27    1
     4    27    28   ar
     5    28    29   ar
     6    29    30   ar
     7    30    31   ar
     8     2     4    1
     9     4     5   ar
    10     5     6   ar
    11     6     7   ar
    12     7     8    1
    13     7     9   ar
    14     9    10   ar
    15    10    11    1
    16     2    12    1
    17    12    13    1
    18    12    14    1
    19    12    15    1
    20    15    16   ar
    21    16    17   ar
    22    17    18   ar
    23    18    19   ar
    24    19    20   ar
    25    20    21    1
    26    20    22   ar
    27    22    23   ar
    28    23    24   ar
    29    24    25   ar
    30    31    27   ar
    31    10     4   ar
    32    25    15   ar
    33    24    18   ar
    34     1     3    1
@<TRIPOS>MOLECULE
*****
 31 34 0 0 0
SMALL
GASTEIGER

@<TRIPOS>ATOM
      1 O          59.9082   86.2764    8.7347 O.3     1  UNL1       -0.3755
      2 C          60.7996   87.1656    9.5503 C.3     1  UNL1        0.1914
      3 H          59.1123   86.7666    8.4755 H       1  UNL1        0.2110
      4 C          61.7899   86.0473    9.6870 C.ar    1  UNL1        0.0368
      5 C          62.5993   85.6131    8.5010 C.ar    1  UNL1        0.0028
      6 C          63.5896   84.4948    8.6378 C.ar    1  UNL1        0.0295
      7 C          63.7705   83.8107    9.9603 C.ar    1  UNL1        0.1424
      8 F          64.7609   82.6924   10.0970 F       1  UNL1       -0.2041
      9 C          62.9612   84.2448   11.1462 C.ar    1  UNL1        0.0590
     10 C          61.9708   85.3632   11.0096 C.ar    1  UNL1        0.1408
     11 F          61.1614   85.7973   12.1955 F       1  UNL1       -0.2043
     12 C          61.6909   88.0546   10.3658 C.3     1  UNL1        0.3253
     13 F          60.6049   88.2043   11.3895 F       1  UNL1       -0.1949
     14 F          62.9604   88.1244    9.5698 F       1  UNL1       -0.1949
     15 C          62.5822   88.9436   11.1814 C.ar    1  UNL1        0.1217
     16 C          62.9186   88.5743   12.5958 C.ar    1  UNL1        0.0202
     17 C          63.8099   89.4633   13.4114 C.ar    1  UNL1        0.0029
     18 C          64.3648   90.7216   12.8126 C.ar    1  UNL1        0.0182
     19 C          65.2561   91.6107   13.6282 C.ar    1  UNL1        0.0082
     20 C          65.8110   92.8691   13.0295 C.ar    1  UNL1        0.0347
     21 BR         66.7024   93.7581   13.8451 Br      1  UNL1       -0.0490
     22 C          65.4747   93.2384   11.6151 C.ar    1  UNL1        0.0082
     23 C          64.5834   92.3494   10.7995 C.ar    1  UNL1        0.0196
     24 C          64.0284   91.0910   11.3983 C.ar    1  UNL1        0.0811
     25 N          63.1371   90.2020   10.5826 N.ar    1  UNL1       -0.2442
     26 C          59.8093   88.2838    9.4136 C.3     1  UNL1        0.1461
     27 N          59.6097   88.9507    8.0848 N.ar    1  UNL1       -0.2874
     28 C          60.4153   90.0938    7.5422 C.ar    1  UNL1        0.2028
     29 N          59.8730   90.4411    6.1874 N.ar    1  UNL1       -0.1254
     30 N          58.7322   89.5126    5.8928 N.ar    1  UNL1       -0.1254
     31 C          58.5695   88.5916    7.0654 C.ar    1  UNL1        0.2028
@<TRIPOS>BOND
     1     1     2    1
     2     2    26    1
     3    26    27    1
     4    27    28   ar
     5    28    29   ar
     6    29    30   ar
     7    30    31   ar
     8     2     4    1
     9     4     5   ar
    10     5     6   ar
    11     6     7   ar
    12     7     8    1
    13     7     9   ar
    14     9    10   ar
    15    10    11    1
    16     2    12    1
    17    12    13    1
    18    12    14    1
    19    12    15    1
    20    15    16   ar
    21    16    17   ar
    22    17    18   ar
    23    18    19   ar
    24    19    20   ar
    25    20    21    1
    26    20    22   ar
    27    22    23   ar
    28    23    24   ar
    29    24    25   ar
    30    31    27   ar
    31    10     4   ar
    32    25    15   ar
    33    24    18   ar
    34     1     3    1
@<TRIPOS>MOLECULE
*****
 31 34 0 0 0
SMALL
GASTEIGER

@<TRIPOS>ATOM
      1 O          60.1881   85.7012    9.9126 O.3     1  UNL1       -0.3755
      2 C          61.0427   86.8559   10.3444 C.3     1  UNL1        0.1914
      3 H          60.3510   84.9428   10.4950 H       1  UNL1        0.2110
      4 C          60.4734   87.6915    9.2364 C.ar    1  UNL1        0.0368
      5 C          60.1489   89.1361    9.4772 C.ar    1  UNL1        0.0028
      6 C          59.5796   89.9716    8.3692 C.ar    1  UNL1        0.0295
      7 C          59.3347   89.3627    7.0204 C.ar    1  UNL1        0.1424
      8 F          58.7654   90.1983    5.9124 F       1  UNL1       -0.2041
      9 C          59.6592   87.9181    6.7796 C.ar    1  UNL1        0.0590
     10 C          60.2285   87.0825    7.8876 C.ar    1  UNL1        0.1408
     11 F          60.5530   85.6380    7.6468 F       1  UNL1       -0.2043
     12 C          61.8971   88.0106   10.7761 C.3     1  UNL1        0.3253
     13 F          62.7739   87.8107    9.5756 F       1  UNL1       -0.1949
     14 F          61.2532   88.4840   12.0455 F       1  UNL1       -0.1949
     15 C          62.7517   89.1654   11.2079 C.ar    1  UNL1        0.1217
     16 C          62.9771   90.3205   10.2779 C.ar    1  UNL1        0.0202
     17 C          63.8316   91.4752   10.7095 C.ar    1  UNL1        0.0029
     18 C          64.4606   91.4749   12.0712 C.ar    1  UNL1        0.0182
     19 C          65.3152   92.6297   12.5030 C.ar    1  UNL1        0.0082
     20 C          65.9442   92.6293   13.8647 C.ar    1  UNL1        0.0347
     21 BR         66.7987   93.7841   14.2964 Br      1  UNL1       -0.0490
     22 C          65.7187   91.4743   14.7947 C.ar    1  UNL1        0.0082
     23 C          64.8643   90.3195   14.3630 C.ar    1  UNL1        0.0196
     24 C          64.2352   90.3198   13.0013 C.ar    1  UNL1        0.0811
     25 N          63.3807   89.1651   12.5696 N.ar    1  UNL1       -0.2442
     26 C          61.6120   86.0204   11.4524 C.3     1  UNL1        0.1461
     27 N          62.4816   84.8410   11.1315 N.ar    1  UNL1       -0.2874
     28 C          62.7773   83.6889   12.0455 C.ar    1  UNL1        0.2028
     29 N          63.6866   82.7426   11.3192 N.ar    1  UNL1       -0.1254
     30 N          63.9530   83.3098    9.9563 N.ar    1  UNL1       -0.1254
     31 C          63.2082   84.6066    9.8403 C.ar    1  UNL1        0.2028
@<TRIPOS>BOND
     1     1     2    1
     2     2    26    1
     3    26    27    1
     4    27    28   ar
     5    28    29   ar
     6    29    30   ar
     7    30    31   ar
     8     2     4    1
     9     4     5   ar
    10     5     6   ar
    11     6     7   ar
    12     7     8    1
    13     7     9   ar
    14     9    10   ar
    15    10    11    1
    16     2    12    1
    17    12    13    1
    18    12    14    1
    19    12    15    1
    20    15    16   ar
    21    16    17   ar
    22    17    18   ar
    23    18    19   ar
    24    19    20   ar
    25    20    21    1
    26    20    22   ar
    27    22    23   ar
    28    23    24   ar
    29    24    25   ar
    30    31    27   ar
    31    10     4   ar
    32    25    15   ar
    33    24    18   ar
    34     1     3    1
