@<TRIPOS>MOLECULE
*****
 39 42 0 0 0
SMALL
GASTEIGER

@<TRIPOS>ATOM
      1 N          62.8309   90.7754   11.6367 N.am    1  UNL1       -0.2438
      2 C          63.3144   91.4330   10.3782 C.3     1  UNL1        0.1009
      3 C          64.4776   92.3789   10.4254 C.3     1  UNL1        0.0661
      4 C          65.1573   92.6672   11.7310 C.3     1  UNL1        0.1594
      5 O          64.6738   92.0096   12.9896 O.3     1  UNL1       -0.4375
      6 C          63.5106   91.0637   12.9424 C.2     1  UNL1        0.4051
      7 O          63.0271   90.4062   14.2009 O.2     1  UNL1       -0.2262
      8 C          65.9756   93.5289   10.8156 C.ar    1  UNL1        0.0139
      9 C          67.0553   92.9153    9.9743 C.ar    1  UNL1        0.0014
     10 C          67.8736   93.7769    9.0588 C.ar    1  UNL1        0.0294
     11 C          67.6121   95.2521    8.9847 C.ar    1  UNL1        0.1401
     12 F          68.4303   96.1137    8.0692 F       1  UNL1       -0.2042
     13 C          66.5323   95.8657    9.8259 C.ar    1  UNL1        0.0294
     14 C          65.7140   95.0040   10.7414 C.ar    1  UNL1        0.0014
     15 C          60.2676   90.3647   11.5330 C.3     1  UNL1        0.0265
     16 C          61.6677   89.8295   11.5895 C.3     1  UNL1        0.1011
     17 C          61.9047   88.3483   11.5987 C.ar    1  UNL1       -0.0042
     18 C          63.0114   87.7710   12.4304 C.ar    1  UNL1       -0.0027
     19 C          63.2483   86.2899   12.4396 C.ar    1  UNL1       -0.0002
     20 C          62.3785   85.3861   11.6171 C.ar    1  UNL1        0.0021
     21 C          61.2717   85.9634   10.7854 C.ar    1  UNL1       -0.0002
     22 C          61.0348   87.4445   10.7762 C.ar    1  UNL1       -0.0027
     23 C          62.6154   83.9049   11.6264 C.ar    1  UNL1        0.0276
     24 C          62.1775   83.0826   12.8020 C.ar    1  UNL1        0.0045
     25 C          62.4145   81.6014   12.8112 C.ar    1  UNL1        0.0298
     26 C          63.0893   80.9426   11.6448 C.ar    1  UNL1        0.1424
     27 F          63.3263   79.4615   11.6540 F       1  UNL1       -0.2041
     28 C          63.5273   81.7650   10.4692 C.ar    1  UNL1        0.0592
     29 C          63.2903   83.2461   10.4600 C.ar    1  UNL1        0.1423
     30 F          63.7282   84.0684    9.2843 F       1  UNL1       -0.2041
     31 C          66.1212   93.2548   12.7188 C.3     1  UNL1        0.0658
     32 C          67.0194   92.3561   13.5159 C.3     1  UNL1        0.0949
     33 N          68.2481   92.9136   14.1714 N.am    1  UNL1       -0.2890
     34 C          68.1999   93.3517   15.6052 C.2     1  UNL1        0.2976
     35 N          69.4286   93.9092   16.2607 N.am    1  UNL1       -0.3133
     36 O          66.9232   93.2323   16.3835 O.2     1  UNL1       -0.2531
     37 H          69.0861   92.9920   13.6606 H       1  UNL1        0.1510
     38 H          70.2665   93.9876   15.7499 H       1  UNL1        0.1465
     39 H          69.3970   94.1968   17.2017 H       1  UNL1        0.1465
@<TRIPOS>BOND
     1    16    15    1
     2    16    17    1
     3    17    18   ar
     4    18    19   ar
     5    19    20   ar
     6    20    23    1
     7    23    24   ar
     8    24    25   ar
     9    25    26   ar
    10    26    27    1
    11    26    28   ar
    12    28    29   ar
    13    29    30    1
    14    20    21   ar
    15    21    22   ar
    16    16     1    1
    17     1     2    1
    18     2     3    1
    19     3     4    1
    20     4    31    1
    21    31    32    1
    22    32    33    1
    23    33    34   am
    24    34    35   am
    25    34    36    2
    26     4     8    1
    27     8     9   ar
    28     9    10   ar
    29    10    11   ar
    30    11    12    1
    31    11    13   ar
    32    13    14   ar
    33     4     5    1
    34     5     6    1
    35     6     7    2
    36    22    17   ar
    37     6     1   am
    38    29    23   ar
    39    14     8   ar
    40    33    37    1
    41    35    38    1
    42    35    39    1
@<TRIPOS>MOLECULE
*****
 39 42 0 0 0
SMALL
GASTEIGER

@<TRIPOS>ATOM
      1 N          63.3109   90.3018   12.0538 N.am    1  UNL1       -0.2438
      2 C          64.0289   90.2047   13.3672 C.3     1  UNL1        0.1009
      3 C          65.2330   91.0601   13.6286 C.3     1  UNL1        0.0661
      4 C          65.7192   92.0125   12.5767 C.3     1  UNL1        0.1594
      5 O          65.0012   92.1096   11.2633 O.3     1  UNL1       -0.4375
      6 C          63.7970   91.2542   11.0018 C.2     1  UNL1        0.4051
      7 O          63.0790   91.3513    9.6884 O.2     1  UNL1       -0.2262
      8 C          66.7277   92.2783   13.6549 C.ar    1  UNL1        0.0139
      9 C          68.1793   91.9890   13.4117 C.ar    1  UNL1        0.0014
     10 C          69.1878   92.2548   14.4899 C.ar    1  UNL1        0.0294
     11 C          68.7446   92.8098   15.8111 C.ar    1  UNL1        0.1401
     12 F          69.7531   93.0755   16.8892 F       1  UNL1       -0.2042
     13 C          67.2930   93.0990   16.0542 C.ar    1  UNL1        0.0294
     14 C          66.2845   92.8332   14.9761 C.ar    1  UNL1        0.0014
     15 C          60.7715   90.0852   11.5490 C.3     1  UNL1        0.0265
     16 C          62.1067   89.4464   11.7923 C.3     1  UNL1        0.1011
     17 C          62.2378   87.9522   11.7741 C.ar    1  UNL1       -0.0042
     18 C          63.1726   87.2697   12.7281 C.ar    1  UNL1       -0.0027
     19 C          63.3036   85.7756   12.7099 C.ar    1  UNL1       -0.0002
     20 C          62.4998   84.9640   11.7376 C.ar    1  UNL1        0.0021
     21 C          61.5650   85.6465   10.7837 C.ar    1  UNL1       -0.0002
     22 C          61.4339   87.1407   10.8019 C.ar    1  UNL1       -0.0027
     23 C          62.6309   83.4698   11.7195 C.ar    1  UNL1        0.0276
     24 C          62.1849   82.6633   12.9029 C.ar    1  UNL1        0.0045
     25 C          62.3160   81.1691   12.8847 C.ar    1  UNL1        0.0298
     26 C          62.8930   80.4815   11.6830 C.ar    1  UNL1        0.1424
     27 F          63.0241   78.9873   11.6648 F       1  UNL1       -0.2041
     28 C          63.3390   81.2880   10.4995 C.ar    1  UNL1        0.0592
     29 C          63.2079   82.7821   10.5177 C.ar    1  UNL1        0.1423
     30 F          63.6539   83.5887    9.3342 F       1  UNL1       -0.2041
     31 C          66.5556   93.0572   11.8992 C.3     1  UNL1        0.0658
     32 C          65.9830   94.4169   11.6285 C.3     1  UNL1        0.0949
     33 N          65.7100   94.8485   10.2181 N.am    1  UNL1       -0.2890
     34 C          66.8383   94.9588    9.2358 C.2     1  UNL1        0.2976
     35 N          66.5652   95.3904    7.8254 N.am    1  UNL1       -0.3133
     36 O          68.2395   94.6375    9.6639 O.2     1  UNL1       -0.2531
     37 H          64.7903   95.0595    9.9371 H       1  UNL1        0.1510
     38 H          65.6455   95.6013    7.5445 H       1  UNL1        0.1465
     39 H          67.3057   95.4628    7.1807 H       1  UNL1        0.1465
@<TRIPOS>BOND
     1    16    15    1
     2    16    17    1
     3    17    18   ar
     4    18    19   ar
     5    19    20   ar
     6    20    23    1
     7    23    24   ar
     8    24    25   ar
     9    25    26   ar
    10    26    27    1
    11    26    28   ar
    12    28    29   ar
    13    29    30    1
    14    20    21   ar
    15    21    22   ar
    16    16     1    1
    17     1     2    1
    18     2     3    1
    19     3     4    1
    20     4    31    1
    21    31    32    1
    22    32    33    1
    23    33    34   am
    24    34    35   am
    25    34    36    2
    26     4     8    1
    27     8     9   ar
    28     9    10   ar
    29    10    11   ar
    30    11    12    1
    31    11    13   ar
    32    13    14   ar
    33     4     5    1
    34     5     6    1
    35     6     7    2
    36    22    17   ar
    37     6     1   am
    38    29    23   ar
    39    14     8   ar
    40    33    37    1
    41    35    38    1
    42    35    39    1
@<TRIPOS>MOLECULE
*****
 39 42 0 0 0
SMALL
GASTEIGER

@<TRIPOS>ATOM
      1 N          63.6868   88.4332   13.6278 N.am    1  UNL1       -0.2438
      2 C          64.2118   87.2228   14.3414 C.3     1  UNL1        0.1009
      3 C          63.8627   85.8504   13.8469 C.3     1  UNL1        0.0661
      4 C          62.9884   85.6883   12.6388 C.3     1  UNL1        0.1594
      5 O          62.4633   86.8988   11.9252 O.3     1  UNL1       -0.4375
      6 C          62.8125   88.2712   12.4197 C.2     1  UNL1        0.4051
      7 O          62.2874   89.4816   11.7062 O.2     1  UNL1       -0.2262
      8 C          63.2403   84.2479   12.9732 C.ar    1  UNL1        0.0139
      9 C          64.2015   83.4437   12.1490 C.ar    1  UNL1        0.0014
     10 C          64.4534   82.0032   12.4834 C.ar    1  UNL1        0.0294
     11 C          63.7439   81.3671   13.6419 C.ar    1  UNL1        0.1401
     12 F          63.9958   79.9267   13.9762 F       1  UNL1       -0.2042
     13 C          62.7827   82.1713   14.4660 C.ar    1  UNL1        0.0294
     14 C          62.5308   83.6118   14.1317 C.ar    1  UNL1        0.0014
     15 C          63.7898   90.1714   15.5560 C.3     1  UNL1        0.0265
     16 C          64.0359   89.8056   14.1223 C.3     1  UNL1        0.1011
     17 C          64.6312   90.8123   13.1830 C.ar    1  UNL1       -0.0042
     18 C          65.9120   91.5063   13.5408 C.ar    1  UNL1       -0.0027
     19 C          66.5072   92.5130   12.6015 C.ar    1  UNL1       -0.0002
     20 C          65.8217   92.8256   11.3044 C.ar    1  UNL1        0.0021
     21 C          64.5410   92.1316   10.9466 C.ar    1  UNL1       -0.0002
     22 C          63.9458   91.1250   11.8859 C.ar    1  UNL1       -0.0027
     23 C          66.4170   93.8323   10.3651 C.ar    1  UNL1        0.0276
     24 C          65.9367   95.2531   10.3856 C.ar    1  UNL1        0.0045
     25 C          66.5320   96.2598    9.4463 C.ar    1  UNL1        0.0298
     26 C          67.6077   95.8456    8.4865 C.ar    1  UNL1        0.1424
     27 F          68.2030   96.8522    7.5472 F       1  UNL1       -0.2041
     28 C          68.0881   94.4247    8.4660 C.ar    1  UNL1        0.0592
     29 C          67.4928   93.4181    9.4052 C.ar    1  UNL1        0.1423
     30 F          67.9732   91.9972    9.3847 F       1  UNL1       -0.2041
     31 C          62.2016   85.0260   11.5469 C.3     1  UNL1        0.0658
     32 C          62.0469   85.7032   10.2174 C.3     1  UNL1        0.0949
     33 N          60.7135   86.2542    9.8070 N.am    1  UNL1       -0.2890
     34 C          60.2885   86.1969    8.3697 C.2     1  UNL1        0.2976
     35 N          58.9551   86.7480    7.9593 N.am    1  UNL1       -0.3133
     36 O          61.1968   85.5884    7.3426 O.2     1  UNL1       -0.2531
     37 H          60.1173   86.6536   10.4811 H       1  UNL1        0.1510
     38 H          58.3589   87.1473    8.6334 H       1  UNL1        0.1465
     39 H          58.6761   86.7103    7.0159 H       1  UNL1        0.1465
@<TRIPOS>BOND
     1    16    15    1
     2    16    17    1
     3    17    18   ar
     4    18    19   ar
     5    19    20   ar
     6    20    23    1
     7    23    24   ar
     8    24    25   ar
     9    25    26   ar
    10    26    27    1
    11    26    28   ar
    12    28    29   ar
    13    29    30    1
    14    20    21   ar
    15    21    22   ar
    16    16     1    1
    17     1     2    1
    18     2     3    1
    19     3     4    1
    20     4    31    1
    21    31    32    1
    22    32    33    1
    23    33    34   am
    24    34    35   am
    25    34    36    2
    26     4     8    1
    27     8     9   ar
    28     9    10   ar
    29    10    11   ar
    30    11    12    1
    31    11    13   ar
    32    13    14   ar
    33     4     5    1
    34     5     6    1
    35     6     7    2
    36    22    17   ar
    37     6     1   am
    38    29    23   ar
    39    14     8   ar
    40    33    37    1
    41    35    38    1
    42    35    39    1
@<TRIPOS>MOLECULE
*****
 39 42 0 0 0
SMALL
GASTEIGER

@<TRIPOS>ATOM
      1 N          62.5639   87.9078   12.4344 N.am    1  UNL1       -0.2438
      2 C          62.1507   86.8539   11.4503 C.3     1  UNL1        0.1009
      3 C          62.6554   85.4493   11.5994 C.3     1  UNL1        0.0661
      4 C          63.5734   85.0985   12.7326 C.3     1  UNL1        0.1594
      5 O          63.9867   86.1524   13.7168 O.3     1  UNL1       -0.4375
      6 C          63.4819   87.5571   13.5677 C.2     1  UNL1        0.4051
      7 O          63.8951   88.6110   14.5518 O.2     1  UNL1       -0.2262
      8 C          63.4660   83.7615   12.0611 C.ar    1  UNL1        0.0139
      9 C          62.6478   82.6713   12.6872 C.ar    1  UNL1        0.0014
     10 C          62.5404   81.3343   12.0156 C.ar    1  UNL1        0.0294
     11 C          63.2513   81.0877   10.7180 C.ar    1  UNL1        0.1401
     12 F          63.1439   79.7507   10.0464 F       1  UNL1       -0.2042
     13 C          64.0695   82.1779   10.0919 C.ar    1  UNL1        0.0294
     14 C          64.1768   83.5149   10.7634 C.ar    1  UNL1        0.0014
     15 C          60.6373   89.6394   12.6338 C.3     1  UNL1        0.0265
     16 C          62.0591   89.3124   12.2853 C.3     1  UNL1        0.1011
     17 C          62.9763   90.3901   11.7877 C.ar    1  UNL1       -0.0042
     18 C          63.9416   91.0472   12.7290 C.ar    1  UNL1       -0.0027
     19 C          64.8587   92.1248   12.2314 C.ar    1  UNL1       -0.0002
     20 C          64.8104   92.5453   10.7923 C.ar    1  UNL1        0.0021
     21 C          63.8451   91.8882    9.8509 C.ar    1  UNL1       -0.0002
     22 C          62.9280   90.8106   10.3486 C.ar    1  UNL1       -0.0027
     23 C          65.7276   93.6229   10.2947 C.ar    1  UNL1        0.0276
     24 C          65.2899   95.0571   10.3331 C.ar    1  UNL1        0.0045
     25 C          66.2070   96.1348    9.8354 C.ar    1  UNL1        0.0298
     26 C          67.5619   95.7782    9.2994 C.ar    1  UNL1        0.1424
     27 F          68.4790   96.8557    8.8018 F       1  UNL1       -0.2041
     28 C          67.9995   94.3439    9.2610 C.ar    1  UNL1        0.0592
     29 C          67.0824   93.2663    9.7586 C.ar    1  UNL1        0.1423
     30 F          67.5200   91.8321    9.7203 F       1  UNL1       -0.2041
     31 C          64.4541   84.2834   13.6327 C.3     1  UNL1        0.0658
     32 C          63.9995   83.9457   15.0216 C.3     1  UNL1        0.0949
     33 N          64.0793   84.9766   16.1084 N.am    1  UNL1       -0.2890
     34 C          62.8243   85.5962   16.6478 C.2     1  UNL1        0.2976
     35 N          62.9040   86.6271   17.7346 N.am    1  UNL1       -0.3133
     36 O          61.4895   85.1851   16.1006 O.2     1  UNL1       -0.2531
     37 H          64.9553   85.2464   16.4676 H       1  UNL1        0.1510
     38 H          63.7801   86.8969   18.0938 H       1  UNL1        0.1465
     39 H          62.0804   87.0338   18.0887 H       1  UNL1        0.1465
@<TRIPOS>BOND
     1    16    15    1
     2    16    17    1
     3    17    18   ar
     4    18    19   ar
     5    19    20   ar
     6    20    23    1
     7    23    24   ar
     8    24    25   ar
     9    25    26   ar
    10    26    27    1
    11    26    28   ar
    12    28    29   ar
    13    29    30    1
    14    20    21   ar
    15    21    22   ar
    16    16     1    1
    17     1     2    1
    18     2     3    1
    19     3     4    1
    20     4    31    1
    21    31    32    1
    22    32    33    1
    23    33    34   am
    24    34    35   am
    25    34    36    2
    26     4     8    1
    27     8     9   ar
    28     9    10   ar
    29    10    11   ar
    30    11    12    1
    31    11    13   ar
    32    13    14   ar
    33     4     5    1
    34     5     6    1
    35     6     7    2
    36    22    17   ar
    37     6     1   am
    38    29    23   ar
    39    14     8   ar
    40    33    37    1
    41    35    38    1
    42    35    39    1
@<TRIPOS>MOLECULE
*****
 39 42 0 0 0
SMALL
GASTEIGER

@<TRIPOS>ATOM
      1 N          62.0362   88.0980   11.1703 N.am    1  UNL1       -0.2438
      2 C          61.5828   88.1354    9.7410 C.3     1  UNL1        0.1009
      3 C          61.7708   86.9340    8.8628 C.3     1  UNL1        0.0661
      4 C          62.4122   85.6952    9.4139 C.3     1  UNL1        0.1594
      5 O          62.8657   85.6577   10.8433 O.3     1  UNL1       -0.4375
      6 C          62.6777   86.8591   11.7214 C.2     1  UNL1        0.4051
      7 O          63.1311   86.8217   13.1508 O.2     1  UNL1       -0.2262
      8 C          62.1499   85.2485    8.0061 C.ar    1  UNL1        0.0139
      9 C          63.2893   84.8144    7.1324 C.ar    1  UNL1        0.0014
     10 C          63.0270   84.3677    5.7247 C.ar    1  UNL1        0.0294
     11 C          61.6253   84.3551    5.1908 C.ar    1  UNL1        0.1401
     12 F          61.3630   83.9084    3.7830 F       1  UNL1       -0.2042
     13 C          60.4859   84.7891    6.0645 C.ar    1  UNL1        0.0294
     14 C          60.7482   85.2358    7.4722 C.ar    1  UNL1        0.0014
     15 C          60.4694   89.8292   12.3097 C.3     1  UNL1        0.0265
     16 C          61.8482   89.2995   12.0484 C.3     1  UNL1        0.1011
     17 C          63.0391   89.9712   12.6654 C.ar    1  UNL1       -0.0042
     18 C          63.7385   91.0781   11.9337 C.ar    1  UNL1       -0.0027
     19 C          64.9293   91.7498   12.5507 C.ar    1  UNL1       -0.0002
     20 C          65.4207   91.3145   13.8994 C.ar    1  UNL1        0.0021
     21 C          64.7213   90.2076   14.6312 C.ar    1  UNL1       -0.0002
     22 C          63.5305   89.5360   14.0142 C.ar    1  UNL1       -0.0027
     23 C          66.6116   91.9863   14.5164 C.ar    1  UNL1        0.0276
     24 C          67.9282   91.9873   13.7977 C.ar    1  UNL1        0.0045
     25 C          69.1191   92.6590   14.4146 C.ar    1  UNL1        0.0298
     26 C          68.9933   93.3297   15.7504 C.ar    1  UNL1        0.1424
     27 F          70.1841   94.0015   16.3674 F       1  UNL1       -0.2041
     28 C          67.6767   93.3287   16.4692 C.ar    1  UNL1        0.0592
     29 C          66.4859   92.6570   15.8522 C.ar    1  UNL1        0.1423
     30 F          65.1693   92.6560   16.5710 F       1  UNL1       -0.2041
     31 C          62.9625   84.3011    9.4761 C.3     1  UNL1        0.0658
     32 C          63.5512   83.7836   10.7550 C.3     1  UNL1        0.0949
     33 N          62.7051   82.9832   11.7003 N.am    1  UNL1       -0.2890
     34 C          63.0725   82.9045   13.1525 C.2     1  UNL1        0.2976
     35 N          62.2264   82.1041   14.0978 N.am    1  UNL1       -0.3133
     36 O          64.2859   83.6260   13.6594 O.2     1  UNL1       -0.2531
     37 H          61.9087   82.5097   11.3676 H       1  UNL1        0.1510
     38 H          61.4300   81.6305   13.7651 H       1  UNL1        0.1465
     39 H          62.4675   82.0524   15.0509 H       1  UNL1        0.1465
@<TRIPOS>BOND
     1    16    15    1
     2    16    17    1
     3    17    18   ar
     4    18    19   ar
     5    19    20   ar
     6    20    23    1
     7    23    24   ar
     8    24    25   ar
     9    25    26   ar
    10    26    27    1
    11    26    28   ar
    12    28    29   ar
    13    29    30    1
    14    20    21   ar
    15    21    22   ar
    16    16     1    1
    17     1     2    1
    18     2     3    1
    19     3     4    1
    20     4    31    1
    21    31    32    1
    22    32    33    1
    23    33    34   am
    24    34    35   am
    25    34    36    2
    26     4     8    1
    27     8     9   ar
    28     9    10   ar
    29    10    11   ar
    30    11    12    1
    31    11    13   ar
    32    13    14   ar
    33     4     5    1
    34     5     6    1
    35     6     7    2
    36    22    17   ar
    37     6     1   am
    38    29    23   ar
    39    14     8   ar
    40    33    37    1
    41    35    38    1
    42    35    39    1
