@<TRIPOS>MOLECULE
*****
 48 54 0 0 0
SMALL
GASTEIGER

@<TRIPOS>ATOM
      1 C          59.3891   88.9998    7.4524 C.3     1  UNL1        0.1543
      2 N          60.5240   89.6332    8.2012 N.am    1  UNL1       -0.2822
      3 C          60.5623   89.5696    9.6994 C.2     1  UNL1        0.3043
      4 O          59.4656   88.8726   10.4488 O.2     1  UNL1       -0.2526
      5 N          61.6972   90.2030   10.4482 N.am    1  UNL1       -0.2641
      6 C          61.7355   90.1394   11.9464 C.3     1  UNL1        0.0966
      7 C          62.8705   90.7728   12.6952 C.3     1  UNL1        0.0415
      8 C          63.9671   91.4697   11.9458 C.3     1  UNL1        0.0806
      9 C          63.9288   91.5333   10.4477 C.3     1  UNL1        0.0415
     10 C          62.7939   90.9000    9.6989 C.3     1  UNL1        0.0966
     11 H          61.2438   90.0906    7.7094 H       1  UNL1        0.1514
     12 N          65.1020   92.1031   12.6946 N.am    1  UNL1       -0.2613
     13 C          65.6366   91.4533   13.9364 C.3     1  UNL1        0.1228
     14 C          66.7716   92.0868   14.6852 C.ar    1  UNL1        0.0112
     15 C          67.3062   91.4370   15.9270 C.ar    1  UNL1       -0.0014
     16 C          68.4411   92.0704   16.6758 C.ar    1  UNL1       -0.0002
     17 C          69.0415   93.3536   16.1829 C.ar    1  UNL1        0.0013
     18 C          68.5069   94.0034   14.9411 C.ar    1  UNL1        0.0144
     19 C          67.3719   93.3699   14.1923 C.ar    1  UNL1        0.0492
     20 N          66.8373   94.0197   12.9505 N.am    1  UNL1       -0.2684
     21 C          65.7024   93.3863   12.2017 C.2     1  UNL1        0.3079
     22 O          65.1678   94.0361   10.9599 O.2     1  UNL1       -0.2522
     23 H          67.2314   94.8619   12.6270 H       1  UNL1        0.1564
     24 C          58.5336   89.8314    6.5433 C.2     1  UNL1        0.2439
     25 O          57.0403   89.8005    6.6828 O.2     1  UNL1       -0.2731
     26 N          59.1712   90.6938    5.4947 N.am    1  UNL1       -0.2781
     27 C          58.3157   91.5254    4.5856 C.3     1  UNL1        0.0948
     28 C          58.9533   92.3878    3.5370 C.3     1  UNL1        0.0375
     29 C          60.4466   92.4187    3.3975 C.3     1  UNL1        0.0609
     30 C          61.3021   91.5871    4.3066 C.3     1  UNL1        0.0375
     31 C          60.6644   90.7246    5.3552 C.3     1  UNL1        0.0948
     32 N          61.0842   93.2811    2.3489 N.3     1  UNL1       -0.2738
     33 C          60.4450   94.5798    1.9555 C.3     1  UNL1        0.0720
     34 C          61.0827   95.4423    0.9069 C.3     1  UNL1        0.0174
     35 C          62.3596   95.0060    0.2516 C.3     1  UNL1        0.0029
     36 C          62.9988   93.7073    0.6450 C.3     1  UNL1        0.0174
     37 C          62.3610   92.8448    1.6937 C.3     1  UNL1        0.0720
     38 C          59.1096   87.5348    7.6127 C.3     1  UNL1        0.0553
     39 C          62.7076   84.1390    6.0242 C.3     1  UNL1        0.0287
     40 C          62.0287   84.8895    7.1314 C.2     1  UNL1       -0.0163
     41 C          60.9086   85.8369    6.8185 C.2     1  UNL1       -0.0105
     42 C          60.2297   86.5874    7.9256 C.2     1  UNL1       -0.0208
     43 C          60.6710   86.3906    9.3457 C.2     1  UNL1       -0.0046
     44 C          61.7911   85.4433    9.6586 C.2     1  UNL1        0.0261
     45 C          62.4386   85.0469   10.9523 C.2     1  UNL1        0.1197
     46 N          63.5177   84.0515   10.6447 N.2     1  UNL1       -0.1508
     47 N          63.5370   83.8326    9.1609 N.2     1  UNL1       -0.1677
     48 C          62.4699   84.6927    8.5514 C.3     1  UNL1        0.1672
@<TRIPOS>BOND
     1    39    40    1
     2    40    41    2
     3    41    42    1
     4    42    38    1
     5    38     1    1
     6     1     2    1
     7     2     3   am
     8     3     4    2
     9     3     5   am
    10     5     6    1
    11     6     7    1
    12     7     8    1
    13     8    12    1
    14    12    13    1
    15    13    14    1
    16    14    15   ar
    17    15    16   ar
    18    16    17   ar
    19    17    18   ar
    20    18    19   ar
    21    19    20    1
    22    20    21   am
    23    21    22    2
    24     8     9    1
    25     9    10    1
    26     1    24    1
    27    24    25    2
    28    24    26   am
    29    26    27    1
    30    27    28    1
    31    28    29    1
    32    29    32    1
    33    32    33    1
    34    33    34    1
    35    34    35    1
    36    35    36    1
    37    36    37    1
    38    29    30    1
    39    30    31    1
    40    42    43    2
    41    43    44    1
    42    44    45    2
    43    45    46    1
    44    46    47    2
    45    47    48    1
    46    48    40    1
    47    10     5    1
    48    31    26    1
    49    48    44    1
    50    21    12   am
    51    37    32    1
    52    19    14   ar
    53     2    11    1
    54    20    23    1
@<TRIPOS>MOLECULE
*****
 48 54 0 0 0
SMALL
GASTEIGER

@<TRIPOS>ATOM
      1 C          60.7350   88.0117    8.9342 C.3     1  UNL1        0.1543
      2 N          60.7920   88.9455    7.7617 N.am    1  UNL1       -0.2822
      3 C          59.5240   89.3933    7.0971 C.2     1  UNL1        0.3043
      4 O          58.1990   88.9073    7.6050 O.2     1  UNL1       -0.2526
      5 N          59.5811   90.3270    5.9247 N.am    1  UNL1       -0.2641
      6 C          58.3131   90.7748    5.2601 C.3     1  UNL1        0.0966
      7 C          58.3702   91.7086    4.0875 C.3     1  UNL1        0.0415
      8 C          59.6953   92.1946    3.5796 C.3     1  UNL1        0.0806
      9 C          60.9633   91.7468    4.2442 C.3     1  UNL1        0.0415
     10 C          60.9062   90.8131    5.4167 C.3     1  UNL1        0.0966
     11 H          61.6617   89.2645    7.4284 H       1  UNL1        0.1514
     12 N          59.7523   93.1284    2.4071 N.am    1  UNL1       -0.2613
     13 C          59.7411   92.5806    1.0108 C.3     1  UNL1        0.1228
     14 C          59.7982   93.5144   -0.1617 C.ar    1  UNL1        0.0112
     15 C          59.7870   92.9666   -1.5581 C.ar    1  UNL1       -0.0014
     16 C          59.8441   93.9004   -2.7305 C.ar    1  UNL1       -0.0002
     17 C          59.9123   95.3821   -2.5067 C.ar    1  UNL1        0.0013
     18 C          59.9235   95.9299   -1.1104 C.ar    1  UNL1        0.0144
     19 C          59.8664   94.9960    0.0621 C.ar    1  UNL1        0.0492
     20 N          59.8776   95.5439    1.4585 N.am    1  UNL1       -0.2684
     21 C          59.8205   94.6101    2.6310 C.2     1  UNL1        0.3079
     22 O          59.8317   95.1579    4.0273 O.2     1  UNL1       -0.2522
     23 H          59.9224   96.5163    1.6054 H       1  UNL1        0.1564
     24 C          60.5046   88.5534   10.3139 C.2     1  UNL1        0.2439
     25 O          59.2161   88.2669   11.0266 O.2     1  UNL1       -0.2731
     26 N          61.5626   89.3815   10.9809 N.am    1  UNL1       -0.2781
     27 C          61.3321   89.9231   12.3605 C.3     1  UNL1        0.0948
     28 C          62.3901   90.7512   13.0275 C.3     1  UNL1        0.0375
     29 C          63.6786   91.0377   12.3148 C.3     1  UNL1        0.0609
     30 C          63.9090   90.4960   10.9352 C.3     1  UNL1        0.0375
     31 C          62.8509   89.6679   10.2682 C.3     1  UNL1        0.0948
     32 N          64.7366   91.8658   12.9818 N.3     1  UNL1       -0.2738
     33 C          65.0930   91.6132   14.4168 C.3     1  UNL1        0.0720
     34 C          66.1510   92.4413   15.0838 C.3     1  UNL1        0.0174
     35 C          66.8526   93.5221   14.3158 C.3     1  UNL1        0.0029
     36 C          66.4961   93.7747   12.8808 C.3     1  UNL1        0.0174
     37 C          65.4381   92.9465   12.2138 C.3     1  UNL1        0.0720
     38 C          60.9084   86.5362    8.7271 C.3     1  UNL1        0.0553
     39 C          64.5142   82.9062    9.6331 C.3     1  UNL1        0.0287
     40 C          63.5343   83.9200   10.1448 C.2     1  UNL1       -0.0163
     41 C          62.7113   84.7212    9.1800 C.2     1  UNL1       -0.0105
     42 C          61.7313   85.7350    9.6918 C.2     1  UNL1       -0.0208
     43 C          61.5743   85.9475   11.1684 C.2     1  UNL1       -0.0046
     44 C          62.3973   85.1463   12.1331 C.2     1  UNL1        0.0261
     45 C          62.4602   85.1364   13.6318 C.2     1  UNL1        0.1197
     46 N          63.4790   84.1164   14.0463 N.2     1  UNL1       -0.1508
     47 N          64.0458   83.4961   12.8037 N.2     1  UNL1       -0.1677
     48 C          63.3773   84.1325   11.6213 C.3     1  UNL1        0.1672
@<TRIPOS>BOND
     1    39    40    1
     2    40    41    2
     3    41    42    1
     4    42    38    1
     5    38     1    1
     6     1     2    1
     7     2     3   am
     8     3     4    2
     9     3     5   am
    10     5     6    1
    11     6     7    1
    12     7     8    1
    13     8    12    1
    14    12    13    1
    15    13    14    1
    16    14    15   ar
    17    15    16   ar
    18    16    17   ar
    19    17    18   ar
    20    18    19   ar
    21    19    20    1
    22    20    21   am
    23    21    22    2
    24     8     9    1
    25     9    10    1
    26     1    24    1
    27    24    25    2
    28    24    26   am
    29    26    27    1
    30    27    28    1
    31    28    29    1
    32    29    32    1
    33    32    33    1
    34    33    34    1
    35    34    35    1
    36    35    36    1
    37    36    37    1
    38    29    30    1
    39    30    31    1
    40    42    43    2
    41    43    44    1
    42    44    45    2
    43    45    46    1
    44    46    47    2
    45    47    48    1
    46    48    40    1
    47    10     5    1
    48    31    26    1
    49    48    44    1
    50    21    12   am
    51    37    32    1
    52    19    14   ar
    53     2    11    1
    54    20    23    1
@<TRIPOS>MOLECULE
*****
 48 54 0 0 0
SMALL
GASTEIGER

@<TRIPOS>ATOM
      1 C          60.5421   88.1836    8.7015 C.3     1  UNL1        0.1543
      2 N          60.6519   89.1029    7.5214 N.am    1  UNL1       -0.2822
      3 C          59.4116   89.5995    6.8394 C.2     1  UNL1        0.3043
      4 O          58.0614   89.1767    7.3376 O.2     1  UNL1       -0.2526
      5 N          59.5215   90.5188    5.6593 N.am    1  UNL1       -0.2641
      6 C          58.2812   91.0153    4.9773 C.3     1  UNL1        0.0966
      7 C          58.3911   91.9347    3.7972 C.3     1  UNL1        0.0415
      8 C          59.7413   92.3575    3.2990 C.3     1  UNL1        0.0806
      9 C          60.9816   91.8609    3.9810 C.3     1  UNL1        0.0415
     10 C          60.8717   90.9416    5.1611 C.3     1  UNL1        0.0966
     11 H          61.5381   89.3804    7.1944 H       1  UNL1        0.1514
     12 N          59.8512   93.2768    2.1189 N.am    1  UNL1       -0.2613
     13 C          59.8424   92.7159    0.7278 C.3     1  UNL1        0.1228
     14 C          59.9522   93.6353   -0.4524 C.ar    1  UNL1        0.0112
     15 C          59.9434   93.0743   -1.8435 C.ar    1  UNL1       -0.0014
     16 C          60.0533   93.9936   -3.0236 C.ar    1  UNL1       -0.0002
     17 C          60.1720   95.4740   -2.8126 C.ar    1  UNL1        0.0013
     18 C          60.1808   96.0350   -1.4215 C.ar    1  UNL1        0.0144
     19 C          60.0709   95.1156   -0.2414 C.ar    1  UNL1        0.0492
     20 N          60.0797   95.6765    1.1498 N.am    1  UNL1       -0.2684
     21 C          59.9698   94.7572    2.3299 C.2     1  UNL1        0.3079
     22 O          59.9786   95.3182    3.7210 O.2     1  UNL1       -0.2522
     23 H          60.1576   96.6481    1.2882 H       1  UNL1        0.1564
     24 C          60.3139   88.7473   10.0727 C.2     1  UNL1        0.2439
     25 O          58.9924   88.5498   10.7545 O.2     1  UNL1       -0.2731
     26 N          61.4072   89.5085   10.7621 N.am    1  UNL1       -0.2781
     27 C          61.1790   90.0722   12.1333 C.3     1  UNL1        0.0948
     28 C          62.2723   90.8334   12.8227 C.3     1  UNL1        0.0375
     29 C          63.5938   91.0309   12.1409 C.3     1  UNL1        0.0609
     30 C          63.8219   90.4672   10.7697 C.3     1  UNL1        0.0375
     31 C          62.7286   89.7060   10.0803 C.3     1  UNL1        0.0948
     32 N          64.6870   91.7921   12.8303 N.3     1  UNL1       -0.2738
     33 C          65.3656   92.9310   12.1286 C.3     1  UNL1        0.0720
     34 C          66.4588   93.6922   12.8180 C.3     1  UNL1        0.0174
     35 C          66.8736   93.3145   14.2092 C.3     1  UNL1        0.0029
     36 C          66.1951   92.1756   14.9109 C.3     1  UNL1        0.0174
     37 C          65.1017   91.4144   14.2214 C.3     1  UNL1        0.0720
     38 C          60.6603   86.7004    8.5104 C.3     1  UNL1        0.0553
     39 C          62.1316   85.4421   13.3325 C.3     1  UNL1        0.0287
     40 C          62.2535   85.2617   11.8483 C.2     1  UNL1       -0.0163
     41 C          61.3959   86.0713   10.9214 C.2     1  UNL1       -0.0105
     42 C          61.5178   85.8909    9.4373 C.2     1  UNL1       -0.0208
     43 C          62.4974   84.9008    8.8801 C.2     1  UNL1       -0.0046
     44 C          63.3549   84.0912    9.8070 C.2     1  UNL1        0.0261
     45 C          64.4013   83.0473    9.5514 C.2     1  UNL1        0.1197
     46 N          64.9261   82.5825   10.8775 N.2     1  UNL1       -0.1508
     47 N          64.2040   83.3392   11.9527 N.2     1  UNL1       -0.1677
     48 C          63.2330   84.2717   11.2911 C.3     1  UNL1        0.1672
@<TRIPOS>BOND
     1    39    40    1
     2    40    41    2
     3    41    42    1
     4    42    38    1
     5    38     1    1
     6     1     2    1
     7     2     3   am
     8     3     4    2
     9     3     5   am
    10     5     6    1
    11     6     7    1
    12     7     8    1
    13     8    12    1
    14    12    13    1
    15    13    14    1
    16    14    15   ar
    17    15    16   ar
    18    16    17   ar
    19    17    18   ar
    20    18    19   ar
    21    19    20    1
    22    20    21   am
    23    21    22    2
    24     8     9    1
    25     9    10    1
    26     1    24    1
    27    24    25    2
    28    24    26   am
    29    26    27    1
    30    27    28    1
    31    28    29    1
    32    29    32    1
    33    32    33    1
    34    33    34    1
    35    34    35    1
    36    35    36    1
    37    36    37    1
    38    29    30    1
    39    30    31    1
    40    42    43    2
    41    43    44    1
    42    44    45    2
    43    45    46    1
    44    46    47    2
    45    47    48    1
    46    48    40    1
    47    10     5    1
    48    31    26    1
    49    48    44    1
    50    21    12   am
    51    37    32    1
    52    19    14   ar
    53     2    11    1
    54    20    23    1
@<TRIPOS>MOLECULE
*****
 48 54 0 0 0
SMALL
GASTEIGER

@<TRIPOS>ATOM
      1 C          60.4921   89.2489    8.4149 C.3     1  UNL1        0.1543
      2 N          60.7809   90.0136    7.1572 N.am    1  UNL1       -0.2822
      3 C          59.6514   90.4865    6.2908 C.2     1  UNL1        0.3043
      4 O          58.2331   90.1947    6.6821 O.2     1  UNL1       -0.2526
      5 N          59.9403   91.2512    5.0331 N.am    1  UNL1       -0.2641
      6 C          58.8108   91.7241    4.1668 C.3     1  UNL1        0.0966
      7 C          59.0997   92.4888    2.9090 C.3     1  UNL1        0.0415
      8 C          60.5180   92.7806    2.5177 C.3     1  UNL1        0.0806
      9 C          61.6475   92.3076    3.3841 C.3     1  UNL1        0.0415
     10 C          61.3587   91.5430    4.6418 C.3     1  UNL1        0.0966
     11 H          61.7118   90.2051    6.9003 H       1  UNL1        0.1514
     12 N          60.8069   93.5452    1.2601 N.am    1  UNL1       -0.2613
     13 C          61.3602   92.8346    0.0605 C.3     1  UNL1        0.1228
     14 C          61.6490   93.5994   -1.1972 C.ar    1  UNL1        0.0112
     15 C          62.2023   92.8887   -2.3967 C.ar    1  UNL1       -0.0014
     16 C          62.4912   93.6534   -3.6544 C.ar    1  UNL1       -0.0002
     17 C          62.2267   95.1288   -3.7126 C.ar    1  UNL1        0.0013
     18 C          61.6734   95.8394   -2.5131 C.ar    1  UNL1        0.0144
     19 C          61.3846   95.0747   -1.2553 C.ar    1  UNL1        0.0492
     20 N          60.8312   95.7853   -0.0558 N.am    1  UNL1       -0.2684
     21 C          60.5424   95.0206    1.2019 C.2     1  UNL1        0.3079
     22 O          59.9891   95.7313    2.4014 O.2     1  UNL1       -0.2522
     23 H          60.6577   96.7537   -0.0940 H       1  UNL1        0.1564
     24 C          60.3971   87.7524    8.3776 C.2     1  UNL1        0.2439
     25 O          59.6038   87.0778    7.2979 O.2     1  UNL1       -0.2731
     26 N          61.0954   86.9304    9.4201 N.am    1  UNL1       -0.2781
     27 C          61.0004   85.4339    9.3828 C.3     1  UNL1        0.0948
     28 C          61.6987   84.6119   10.4253 C.3     1  UNL1        0.0375
     29 C          62.4921   85.2864   11.5050 C.3     1  UNL1        0.0609
     30 C          62.5871   86.7829   11.5422 C.3     1  UNL1        0.0375
     31 C          61.8887   87.6049   10.4997 C.3     1  UNL1        0.0948
     32 N          63.1904   84.4644   12.5474 N.3     1  UNL1       -0.2738
     33 C          63.2487   82.9718   12.4106 C.3     1  UNL1        0.0720
     34 C          63.9470   82.1499   13.4530 C.3     1  UNL1        0.0174
     35 C          64.5871   82.8205   14.6323 C.3     1  UNL1        0.0029
     36 C          64.5287   84.3131   14.7691 C.3     1  UNL1        0.0174
     37 C          63.8304   85.1351   13.7266 C.3     1  UNL1        0.0720
     38 C          60.2982   89.9807    9.7098 C.3     1  UNL1        0.0553
     39 C          62.8770   89.9594   14.2209 C.3     1  UNL1        0.0287
     40 C          62.7779   90.3756   12.7832 C.2     1  UNL1       -0.0163
     41 C          61.5875   89.9701   11.9654 C.2     1  UNL1       -0.0105
     42 C          61.4885   90.3862   10.5277 C.2     1  UNL1       -0.0208
     43 C          62.5797   91.2078    9.9078 C.2     1  UNL1       -0.0046
     44 C          63.7699   91.6133   10.7256 C.2     1  UNL1        0.0261
     45 C          64.9921   92.4157   10.3900 C.2     1  UNL1        0.1197
     46 N          65.8465   92.4955   11.6203 N.2     1  UNL1       -0.1508
     47 N          65.1524   91.7424   12.7162 N.2     1  UNL1       -0.1677
     48 C          63.8690   91.1972   12.1633 C.3     1  UNL1        0.1672
@<TRIPOS>BOND
     1    39    40    1
     2    40    41    2
     3    41    42    1
     4    42    38    1
     5    38     1    1
     6     1     2    1
     7     2     3   am
     8     3     4    2
     9     3     5   am
    10     5     6    1
    11     6     7    1
    12     7     8    1
    13     8    12    1
    14    12    13    1
    15    13    14    1
    16    14    15   ar
    17    15    16   ar
    18    16    17   ar
    19    17    18   ar
    20    18    19   ar
    21    19    20    1
    22    20    21   am
    23    21    22    2
    24     8     9    1
    25     9    10    1
    26     1    24    1
    27    24    25    2
    28    24    26   am
    29    26    27    1
    30    27    28    1
    31    28    29    1
    32    29    32    1
    33    32    33    1
    34    33    34    1
    35    34    35    1
    36    35    36    1
    37    36    37    1
    38    29    30    1
    39    30    31    1
    40    42    43    2
    41    43    44    1
    42    44    45    2
    43    45    46    1
    44    46    47    2
    45    47    48    1
    46    48    40    1
    47    10     5    1
    48    31    26    1
    49    48    44    1
    50    21    12   am
    51    37    32    1
    52    19    14   ar
    53     2    11    1
    54    20    23    1
@<TRIPOS>MOLECULE
*****
 48 54 0 0 0
SMALL
GASTEIGER

@<TRIPOS>ATOM
      1 C          60.4827   89.3001    8.4369 C.3     1  UNL1        0.1543
      2 N          60.8596   89.9701    7.1489 N.am    1  UNL1       -0.2822
      3 C          59.7975   90.5750    6.2793 C.2     1  UNL1        0.3043
      4 O          58.3586   90.5099    6.6978 O.2     1  UNL1       -0.2526
      5 N          60.1744   91.2450    4.9913 N.am    1  UNL1       -0.2641
      6 C          59.1124   91.8499    4.1218 C.3     1  UNL1        0.0966
      7 C          59.4893   92.5200    2.8337 C.3     1  UNL1        0.0415
      8 C          60.9282   92.5851    2.4153 C.3     1  UNL1        0.0806
      9 C          61.9903   91.9802    3.2848 C.3     1  UNL1        0.0415
     10 C          61.6134   91.3102    4.5728 C.3     1  UNL1        0.0966
     11 H          61.8041   90.0129    6.8742 H       1  UNL1        0.1514
     12 N          61.3051   93.2551    1.1273 N.am    1  UNL1       -0.2613
     13 C          62.2912   94.3854    1.1304 C.3     1  UNL1        0.1228
     14 C          62.6681   95.0555   -0.1577 C.ar    1  UNL1        0.0112
     15 C          63.6542   96.1858   -0.1547 C.ar    1  UNL1       -0.0014
     16 C          64.0311   96.8558   -1.4427 C.ar    1  UNL1       -0.0002
     17 C          63.4218   96.3955   -2.7338 C.ar    1  UNL1        0.0013
     18 C          62.4357   95.2652   -2.7369 C.ar    1  UNL1        0.0144
     19 C          62.0589   94.5952   -1.4488 C.ar    1  UNL1        0.0492
     20 N          61.0728   93.4649   -1.4519 N.am    1  UNL1       -0.2684
     21 C          60.6959   92.7948   -0.1639 C.2     1  UNL1        0.3079
     22 O          59.7098   91.6645   -0.1670 O.2     1  UNL1       -0.2522
     23 H          60.6729   93.1628   -2.2993 H       1  UNL1        0.1564
     24 C          60.3039   87.8115    8.4837 C.2     1  UNL1        0.2439
     25 O          59.3920   87.1345    7.5038 O.2     1  UNL1       -0.2731
     26 N          61.0371   87.0000    9.5102 N.am    1  UNL1       -0.2781
     27 C          60.8583   85.5114    9.5570 C.3     1  UNL1        0.0948
     28 C          61.5914   84.6999   10.5835 C.3     1  UNL1        0.0375
     29 C          62.5034   85.3769   11.5634 C.3     1  UNL1        0.0609
     30 C          62.6822   86.8654   11.5166 C.3     1  UNL1        0.0375
     31 C          61.9490   87.6770   10.4900 C.3     1  UNL1        0.0948
     32 N          63.2366   84.5653   12.5899 N.3     1  UNL1       -0.2738
     33 C          63.3280   83.0754   12.4426 C.3     1  UNL1        0.0720
     34 C          64.0612   82.2638   13.4692 C.3     1  UNL1        0.0174
     35 C          64.7029   82.9422   14.6431 C.3     1  UNL1        0.0029
     36 C          64.6114   84.4322   14.7904 C.3     1  UNL1        0.0174
     37 C          63.8783   85.2437   13.7638 C.3     1  UNL1        0.0720
     38 C          60.2846   90.1187    9.6782 C.3     1  UNL1        0.0553
     39 C          64.9748   92.2570   10.3340 C.3     1  UNL1        0.0287
     40 C          63.7998   91.5073   10.8886 C.2     1  UNL1       -0.0163
     41 C          62.6297   91.1878   10.0061 C.2     1  UNL1       -0.0105
     42 C          61.4547   90.4381   10.5606 C.2     1  UNL1       -0.0208
     43 C          61.4500   90.0079   11.9976 C.2     1  UNL1       -0.0046
     44 C          62.6201   90.3274   12.8801 C.2     1  UNL1        0.0261
     45 C          62.8969   90.0349   14.3250 C.2     1  UNL1        0.1197
     46 N          64.2429   90.6038   14.6635 N.2     1  UNL1       -0.1508
     47 N          64.7980   91.2479   13.4278 N.2     1  UNL1       -0.1677
     48 C          63.7950   91.0771   12.3255 C.3     1  UNL1        0.1672
@<TRIPOS>BOND
     1    39    40    1
     2    40    41    2
     3    41    42    1
     4    42    38    1
     5    38     1    1
     6     1     2    1
     7     2     3   am
     8     3     4    2
     9     3     5   am
    10     5     6    1
    11     6     7    1
    12     7     8    1
    13     8    12    1
    14    12    13    1
    15    13    14    1
    16    14    15   ar
    17    15    16   ar
    18    16    17   ar
    19    17    18   ar
    20    18    19   ar
    21    19    20    1
    22    20    21   am
    23    21    22    2
    24     8     9    1
    25     9    10    1
    26     1    24    1
    27    24    25    2
    28    24    26   am
    29    26    27    1
    30    27    28    1
    31    28    29    1
    32    29    32    1
    33    32    33    1
    34    33    34    1
    35    34    35    1
    36    35    36    1
    37    36    37    1
    38    29    30    1
    39    30    31    1
    40    42    43    2
    41    43    44    1
    42    44    45    2
    43    45    46    1
    44    46    47    2
    45    47    48    1
    46    48    40    1
    47    10     5    1
    48    31    26    1
    49    48    44    1
    50    21    12   am
    51    37    32    1
    52    19    14   ar
    53     2    11    1
    54    20    23    1
