@<TRIPOS>MOLECULE
*****
 32 35 0 0 0
SMALL
GASTEIGER

@<TRIPOS>ATOM
      1 N          61.7907   86.5198   10.6064 N.pl3   1  UNL1       -0.2853
      2 C          61.2534   86.0620    9.2828 C.3     1  UNL1        0.1220
      3 C          60.7528   87.2674    8.5436 C.ar    1  UNL1        0.0337
      4 C          60.1114   87.7294    7.2688 C.ar    1  UNL1        0.0990
      5 N          59.9429   89.2178    7.3478 N.ar    1  UNL1       -0.2287
      6 N          60.4800   89.6757    8.6713 N.ar    1  UNL1       -0.1681
      7 C          60.9806   88.4703    9.4104 C.ar    1  UNL1        0.0960
      8 C          61.6220   88.0082   10.6852 C.3     1  UNL1        0.1160
      9 C          64.3434   85.9980   15.1021 C.3     1  UNL1        0.0737
     10 C          63.6674   85.3823   13.9129 C.ar    1  UNL1        0.1409
     11 N          63.0670   86.2589   12.8542 N.ar    1  UNL1       -0.2160
     12 C          62.3910   85.6432   11.6651 C.ar    1  UNL1        0.1350
     13 C          62.3154   84.1508   11.5348 C.ar    1  UNL1        0.0574
     14 C          62.9158   83.2740   12.5936 C.ar    1  UNL1        0.1567
     15 N          63.5918   83.8898   13.7827 N.ar    1  UNL1       -0.2266
     16 C          62.8402   81.7816   12.4633 C.3     1  UNL1        0.4350
     17 F          62.7646   80.2892   12.3332 F       1  UNL1       -0.1644
     18 F          63.9511   81.8133   11.4559 F       1  UNL1       -0.1644
     19 F          61.7293   81.7501   13.4709 F       1  UNL1       -0.1644
     20 C          59.3425   90.0945    6.2890 C.ar    1  UNL1        0.0841
     21 C          57.8527   90.2385    6.1904 C.ar    1  UNL1        0.0192
     22 C          57.2524   91.1152    5.1316 C.ar    1  UNL1        0.0029
     23 C          58.1418   91.8479    4.1714 C.ar    1  UNL1        0.0184
     24 C          59.6316   91.7040    4.2700 C.ar    1  UNL1        0.1072
     25 C          60.2319   90.8273    5.3288 C.ar    1  UNL1        0.0375
     26 S          60.5211   92.4367    3.3099 S.O2    1  UNL1        0.0105
     27 C          61.4105   93.1695    2.3497 C.3     1  UNL1        0.1816
     28 O          61.7238   91.7900    3.9304 O.2     1  UNL1       -0.1686
     29 O          59.3183   93.0835    2.6893 O.2     1  UNL1       -0.1686
     30 C          62.0242   88.8813   11.8368 C.3     1  UNL1        0.0240
     31 C          63.4598   88.9398   12.2680 C.3     1  UNL1        0.0021
     32 C          60.9910   89.6958   12.5570 C.3     1  UNL1        0.0021
@<TRIPOS>BOND
     1     9    10    1
     2    10    11   ar
     3    11    12   ar
     4    12     1    1
     5     1     2    1
     6     2     3    1
     7     3     4   ar
     8     4     5   ar
     9     5    20    1
    10    20    21   ar
    11    21    22   ar
    12    22    23   ar
    13    23    24   ar
    14    24    26    1
    15    26    27    1
    16    26    28    2
    17    26    29    2
    18    24    25   ar
    19     5     6   ar
    20     6     7   ar
    21     7     8    1
    22     8    30    1
    23    30    31    1
    24    30    32    1
    25    12    13   ar
    26    13    14   ar
    27    14    16    1
    28    16    17    1
    29    16    18    1
    30    16    19    1
    31    14    15   ar
    32    15    10   ar
    33     8     1    1
    34     7     3   ar
    35    25    20   ar
@<TRIPOS>MOLECULE
*****
 32 35 0 0 0
SMALL
GASTEIGER

@<TRIPOS>ATOM
      1 N          63.0692   84.5012   13.2489 N.pl3   1  UNL1       -0.2853
      2 C          63.7589   85.0117   14.4793 C.3     1  UNL1        0.1220
      3 C          64.0058   86.4800   14.2969 C.ar    1  UNL1        0.0337
      4 C          64.5846   87.7028   14.9446 C.ar    1  UNL1        0.0990
      5 N          64.4052   88.8556   14.0018 N.ar    1  UNL1       -0.2287
      6 N          63.7154   88.3452   12.7715 N.ar    1  UNL1       -0.1681
      7 C          63.4686   86.8770   12.9538 C.ar    1  UNL1        0.0960
      8 C          62.8897   85.6541   12.3061 C.3     1  UNL1        0.1160
      9 C          60.2945   80.3387   14.6541 C.3     1  UNL1        0.0737
     10 C          61.2478   81.0052   13.7069 C.ar    1  UNL1        0.1409
     11 N          61.6818   82.4200   13.9515 N.ar    1  UNL1       -0.2160
     12 C          62.6351   83.0865   13.0043 C.ar    1  UNL1        0.1350
     13 C          63.1542   82.3381   11.8126 C.ar    1  UNL1        0.0574
     14 C          62.7202   80.9232   11.5679 C.ar    1  UNL1        0.1567
     15 N          61.7669   80.2568   12.5151 N.ar    1  UNL1       -0.2266
     16 C          63.2393   80.1748   10.3761 C.3     1  UNL1        0.4350
     17 F          63.7584   79.4263    9.1844 F       1  UNL1       -0.1644
     18 F          63.8711   81.4338    9.8607 F       1  UNL1       -0.1644
     19 F          62.6075   78.9158   10.8916 F       1  UNL1       -0.1644
     20 C          64.8392   90.2705   14.2464 C.ar    1  UNL1        0.0841
     21 C          64.9005   90.8048   15.6467 C.ar    1  UNL1        0.0192
     22 C          65.3346   92.2196   15.8912 C.ar    1  UNL1        0.0029
     23 C          65.7074   93.1002   14.7355 C.ar    1  UNL1        0.0184
     24 C          65.6462   92.5659   13.3352 C.ar    1  UNL1        0.1072
     25 C          65.2121   91.1510   13.0907 C.ar    1  UNL1        0.0375
     26 S          66.0190   93.4464   12.1795 S.O2    1  UNL1        0.0105
     27 C          66.3918   94.3268   11.0237 C.3     1  UNL1        0.1816
     28 O          66.3354   94.5618   13.1312 O.2     1  UNL1       -0.1686
     29 O          65.7025   92.3309   11.2277 O.2     1  UNL1       -0.1686
     30 C          62.2447   85.5945   10.9532 C.3     1  UNL1        0.0240
     31 C          60.9469   86.3060   10.7091 C.3     1  UNL1        0.0021
     32 C          62.8974   84.8234    9.8445 C.3     1  UNL1        0.0021
@<TRIPOS>BOND
     1     9    10    1
     2    10    11   ar
     3    11    12   ar
     4    12     1    1
     5     1     2    1
     6     2     3    1
     7     3     4   ar
     8     4     5   ar
     9     5    20    1
    10    20    21   ar
    11    21    22   ar
    12    22    23   ar
    13    23    24   ar
    14    24    26    1
    15    26    27    1
    16    26    28    2
    17    26    29    2
    18    24    25   ar
    19     5     6   ar
    20     6     7   ar
    21     7     8    1
    22     8    30    1
    23    30    31    1
    24    30    32    1
    25    12    13   ar
    26    13    14   ar
    27    14    16    1
    28    16    17    1
    29    16    18    1
    30    16    19    1
    31    14    15   ar
    32    15    10   ar
    33     8     1    1
    34     7     3   ar
    35    25    20   ar
@<TRIPOS>MOLECULE
*****
 32 35 0 0 0
SMALL
GASTEIGER

@<TRIPOS>ATOM
      1 N          64.3430   90.6062   13.4699 N.pl3   1  UNL1       -0.2853
      2 C          63.9464   91.0854   12.1049 C.3     1  UNL1        0.1220
      3 C          63.1763   89.9871   11.4336 C.ar    1  UNL1        0.0337
      4 C          62.4553   89.6046   10.1751 C.ar    1  UNL1        0.0990
      5 N          61.9302   88.2101   10.3474 N.ar    1  UNL1       -0.2287
      6 N          62.3268   87.7308   11.7124 N.ar    1  UNL1       -0.1681
      7 C          63.0969   88.8290   12.3837 C.ar    1  UNL1        0.0960
      8 C          63.8180   89.2116   13.6421 C.3     1  UNL1        0.1160
      9 C          64.5780   93.1250   18.0086 C.3     1  UNL1        0.0737
     10 C          65.2445   92.6441   16.7537 C.ar    1  UNL1        0.1409
     11 N          64.4605   91.8656   15.7393 N.ar    1  UNL1       -0.2160
     12 C          65.1270   91.3846   14.4844 C.ar    1  UNL1        0.1350
     13 C          66.5774   91.6823   14.2441 C.ar    1  UNL1        0.0574
     14 C          67.3614   92.4608   15.2586 C.ar    1  UNL1        0.1567
     15 N          66.6949   92.9417   16.5135 N.ar    1  UNL1       -0.2266
     16 C          68.8118   92.7585   15.0184 C.3     1  UNL1        0.4350
     17 F          70.2622   93.0561   14.7781 F       1  UNL1       -0.1644
     18 F          68.8459   93.5961   16.2623 F       1  UNL1       -0.1644
     19 F          68.7775   91.9208   13.7745 F       1  UNL1       -0.1644
     20 C          61.1463   87.4315    9.3329 C.ar    1  UNL1        0.0841
     21 C          59.6634   87.6273    9.2196 C.ar    1  UNL1        0.0192
     22 C          58.8795   86.8487    8.2051 C.ar    1  UNL1        0.0029
     23 C          59.5784   85.8743    7.3038 C.ar    1  UNL1        0.0184
     24 C          61.0612   85.6786    7.4171 C.ar    1  UNL1        0.1072
     25 C          61.8451   86.4572    8.4317 C.ar    1  UNL1        0.0375
     26 S          61.7602   84.7043    6.5159 S.O2    1  UNL1        0.0105
     27 C          62.4590   83.7299    5.6147 C.3     1  UNL1        0.1816
     28 O          63.0556   84.9835    7.2187 O.2     1  UNL1       -0.1686
     29 O          60.4646   84.4250    5.8132 O.2     1  UNL1       -0.1686
     30 C          63.9847   88.3508   14.8592 C.3     1  UNL1        0.0240
     31 C          63.4517   88.8125   16.1831 C.3     1  UNL1        0.0021
     32 C          64.6844   87.0283   14.7523 C.3     1  UNL1        0.0021
@<TRIPOS>BOND
     1     9    10    1
     2    10    11   ar
     3    11    12   ar
     4    12     1    1
     5     1     2    1
     6     2     3    1
     7     3     4   ar
     8     4     5   ar
     9     5    20    1
    10    20    21   ar
    11    21    22   ar
    12    22    23   ar
    13    23    24   ar
    14    24    26    1
    15    26    27    1
    16    26    28    2
    17    26    29    2
    18    24    25   ar
    19     5     6   ar
    20     6     7   ar
    21     7     8    1
    22     8    30    1
    23    30    31    1
    24    30    32    1
    25    12    13   ar
    26    13    14   ar
    27    14    16    1
    28    16    17    1
    29    16    18    1
    30    16    19    1
    31    14    15   ar
    32    15    10   ar
    33     8     1    1
    34     7     3   ar
    35    25    20   ar
@<TRIPOS>MOLECULE
*****
 32 35 0 0 0
SMALL
GASTEIGER

@<TRIPOS>ATOM
      1 N          61.6148   86.2689   10.4809 N.pl3   1  UNL1       -0.2853
      2 C          61.0265   85.8611    9.1627 C.3     1  UNL1        0.1220
      3 C          60.5767   87.1030    8.4518 C.ar    1  UNL1        0.0337
      4 C          59.9352   87.6185    7.1977 C.ar    1  UNL1        0.0990
      5 N          59.8490   89.1124    7.3015 N.ar    1  UNL1       -0.2287
      6 N          60.4373   89.5202    8.6197 N.ar    1  UNL1       -0.1681
      7 C          60.8871   88.2784    9.3306 C.ar    1  UNL1        0.0960
      8 C          61.5286   87.7629   10.5847 C.3     1  UNL1        0.1160
      9 C          63.1065   81.5061   11.9268 C.3     1  UNL1        0.0737
     10 C          62.9343   82.9636   12.2369 C.ar    1  UNL1        0.1409
     11 N          62.3606   83.8875   11.2039 N.ar    1  UNL1       -0.2160
     12 C          62.1885   85.3450   11.5139 C.ar    1  UNL1        0.1350
     13 C          62.5900   85.8785   12.8571 C.ar    1  UNL1        0.0574
     14 C          63.1638   84.9546   13.8902 C.ar    1  UNL1        0.1567
     15 N          63.3359   83.4972   13.5801 N.ar    1  UNL1       -0.2266
     16 C          63.5653   85.4881   15.2334 C.3     1  UNL1        0.4350
     17 F          63.9670   86.0217   16.5765 F       1  UNL1       -0.1644
     18 F          62.4875   84.6700   15.8806 F       1  UNL1       -0.1644
     19 F          64.6432   86.3062   14.5860 F       1  UNL1       -0.1644
     20 C          59.2753   90.0364    6.2684 C.ar    1  UNL1        0.0841
     21 C          57.7908   90.2319    6.1787 C.ar    1  UNL1        0.0192
     22 C          57.2172   91.1559    5.1456 C.ar    1  UNL1        0.0029
     23 C          58.1280   91.8843    4.2023 C.ar    1  UNL1        0.0184
     24 C          59.6125   91.6888    4.2920 C.ar    1  UNL1        0.1072
     25 C          60.1861   90.7648    5.3251 C.ar    1  UNL1        0.0375
     26 S          60.5233   92.4171    3.3487 S.O2    1  UNL1        0.0105
     27 C          61.4342   93.1455    2.4055 C.3     1  UNL1        0.1816
     28 O          59.3375   93.0893    2.7225 O.2     1  UNL1       -0.1686
     29 O          61.7092   91.7450    3.9749 O.2     1  UNL1       -0.1686
     30 C          62.0010   88.5952   11.7397 C.3     1  UNL1        0.0240
     31 C          63.4215   88.4882   12.2097 C.3     1  UNL1        0.0021
     32 C          61.0531   89.5344   12.4247 C.3     1  UNL1        0.0021
@<TRIPOS>BOND
     1     9    10    1
     2    10    11   ar
     3    11    12   ar
     4    12     1    1
     5     1     2    1
     6     2     3    1
     7     3     4   ar
     8     4     5   ar
     9     5    20    1
    10    20    21   ar
    11    21    22   ar
    12    22    23   ar
    13    23    24   ar
    14    24    26    1
    15    26    27    1
    16    26    28    2
    17    26    29    2
    18    24    25   ar
    19     5     6   ar
    20     6     7   ar
    21     7     8    1
    22     8    30    1
    23    30    31    1
    24    30    32    1
    25    12    13   ar
    26    13    14   ar
    27    14    16    1
    28    16    17    1
    29    16    18    1
    30    16    19    1
    31    14    15   ar
    32    15    10   ar
    33     8     1    1
    34     7     3   ar
    35    25    20   ar
@<TRIPOS>MOLECULE
*****
 32 35 0 0 0
SMALL
GASTEIGER

@<TRIPOS>ATOM
      1 N          63.0202   84.1741   13.5521 N.pl3   1  UNL1       -0.2853
      2 C          63.6044   84.6038   14.8652 C.3     1  UNL1        0.1220
      3 C          63.8908   86.0741   14.7861 C.ar    1  UNL1        0.0337
      4 C          64.4289   87.2483   15.5488 C.ar    1  UNL1        0.0990
      5 N          64.3543   88.4530   14.6583 N.ar    1  UNL1       -0.2287
      6 N          63.7701   88.0233   13.3452 N.ar    1  UNL1       -0.1681
      7 C          63.4837   86.5531   13.4242 C.ar    1  UNL1        0.0960
      8 C          62.9456   85.3789   12.6615 C.3     1  UNL1        0.1160
      9 C          60.1905   79.9373   14.5733 C.3     1  UNL1        0.0737
     10 C          61.1719   80.6655   13.7033 C.ar    1  UNL1        0.1409
     11 N          61.6053   82.0557   14.0627 N.ar    1  UNL1       -0.2160
     12 C          62.5867   82.7839   13.1927 C.ar    1  UNL1        0.1350
     13 C          63.1345   82.1216   11.9633 C.ar    1  UNL1        0.0574
     14 C          62.7010   80.7313   11.6039 C.ar    1  UNL1        0.1567
     15 N          61.7197   80.0032   12.4739 N.ar    1  UNL1       -0.2266
     16 C          63.2489   80.0691   10.3745 C.3     1  UNL1        0.4350
     17 F          63.7967   79.4070    9.1451 F       1  UNL1       -0.1644
     18 F          62.5904   78.7821   10.7744 F       1  UNL1       -0.1644
     19 F          63.9073   81.3563    9.9747 F       1  UNL1       -0.1644
     20 C          64.7878   89.8433   15.0176 C.ar    1  UNL1        0.0841
     21 C          63.8370   90.7677   15.7187 C.ar    1  UNL1        0.0192
     22 C          64.2706   92.1580   16.0781 C.ar    1  UNL1        0.0029
     23 C          65.6549   92.6239   15.7364 C.ar    1  UNL1        0.0184
     24 C          66.6056   91.6995   15.0353 C.ar    1  UNL1        0.1072
     25 C          66.1720   90.3092   14.6760 C.ar    1  UNL1        0.0375
     26 S          67.9899   92.1653   14.6936 S.O2    1  UNL1        0.0105
     27 C          69.3742   92.6311   14.3520 C.3     1  UNL1        0.1816
     28 O          67.7033   91.9489   13.2372 O.2     1  UNL1       -0.1686
     29 O          68.2765   92.3818   16.1500 O.2     1  UNL1       -0.1686
     30 C          62.4244   85.4048   11.2552 C.3     1  UNL1        0.0240
     31 C          61.1760   86.1711   10.9320 C.3     1  UNL1        0.0021
     32 C          63.1516   84.6645   10.1721 C.3     1  UNL1        0.0021
@<TRIPOS>BOND
     1     9    10    1
     2    10    11   ar
     3    11    12   ar
     4    12     1    1
     5     1     2    1
     6     2     3    1
     7     3     4   ar
     8     4     5   ar
     9     5    20    1
    10    20    21   ar
    11    21    22   ar
    12    22    23   ar
    13    23    24   ar
    14    24    26    1
    15    26    27    1
    16    26    28    2
    17    26    29    2
    18    24    25   ar
    19     5     6   ar
    20     6     7   ar
    21     7     8    1
    22     8    30    1
    23    30    31    1
    24    30    32    1
    25    12    13   ar
    26    13    14   ar
    27    14    16    1
    28    16    17    1
    29    16    18    1
    30    16    19    1
    31    14    15   ar
    32    15    10   ar
    33     8     1    1
    34     7     3   ar
    35    25    20   ar
@<TRIPOS>MOLECULE
*****
 32 35 0 0 0
SMALL
GASTEIGER

@<TRIPOS>ATOM
      1 N          62.0424   87.8702   10.2610 N.pl3   1  UNL1       -0.2853
      2 C          62.2440   89.3565   10.2774 C.3     1  UNL1        0.1220
      3 C          62.9754   89.7112   11.5381 C.ar    1  UNL1        0.0337
      4 C          63.5519   90.8490   12.3274 C.ar    1  UNL1        0.0990
      5 N          64.1586   90.2851   13.5779 N.ar    1  UNL1       -0.2287
      6 N          63.9570   88.7987   13.5616 N.ar    1  UNL1       -0.1681
      7 C          63.2257   88.4441   12.3009 C.ar    1  UNL1        0.0960
      8 C          62.6491   87.3063   11.5116 C.3     1  UNL1        0.1160
      9 C          57.7000   86.5432    7.7344 C.3     1  UNL1        0.0737
     10 C          59.1836   86.4221    7.9200 C.ar    1  UNL1        0.1409
     11 N          59.8712   87.2067    8.9977 N.ar    1  UNL1       -0.2160
     12 C          61.3548   87.0856    9.1833 C.ar    1  UNL1        0.1350
     13 C          62.1507   86.1798    8.2911 C.ar    1  UNL1        0.0574
     14 C          61.4631   85.3951    7.2133 C.ar    1  UNL1        0.1567
     15 N          59.9796   85.5162    7.0278 N.ar    1  UNL1       -0.2266
     16 C          62.2590   84.4893    6.3211 C.3     1  UNL1        0.4350
     17 F          63.0550   83.5835    5.4289 F       1  UNL1       -0.1644
     18 F          61.0145   84.1496    5.5557 F       1  UNL1       -0.1644
     19 F          63.5036   84.8290    7.0865 F       1  UNL1       -0.1644
     20 C          64.8463   91.0697   14.6557 C.ar    1  UNL1        0.0841
     21 C          64.1072   91.4266   15.9112 C.ar    1  UNL1        0.0192
     22 C          64.7949   92.2113   16.9889 C.ar    1  UNL1        0.0029
     23 C          66.2216   92.6389   16.8112 C.ar    1  UNL1        0.0184
     24 C          66.9607   92.2820   15.5557 C.ar    1  UNL1        0.1072
     25 C          66.2729   91.4974   14.4779 C.ar    1  UNL1        0.0375
     26 S          68.3873   92.7096   15.3778 S.O2    1  UNL1        0.0105
     27 C          69.8140   93.1373   15.2001 C.3     1  UNL1        0.1816
     28 O          68.0881   93.1214   13.9668 O.2     1  UNL1       -0.1686
     29 O          68.6866   92.2979   16.7889 O.2     1  UNL1       -0.1686
     30 C          62.6748   85.8587   11.9040 C.3     1  UNL1        0.0240
     31 C          63.3876   85.4328   13.1532 C.3     1  UNL1        0.0021
     32 C          61.9876   84.8371   11.0472 C.3     1  UNL1        0.0021
@<TRIPOS>BOND
     1     9    10    1
     2    10    11   ar
     3    11    12   ar
     4    12     1    1
     5     1     2    1
     6     2     3    1
     7     3     4   ar
     8     4     5   ar
     9     5    20    1
    10    20    21   ar
    11    21    22   ar
    12    22    23   ar
    13    23    24   ar
    14    24    26    1
    15    26    27    1
    16    26    28    2
    17    26    29    2
    18    24    25   ar
    19     5     6   ar
    20     6     7   ar
    21     7     8    1
    22     8    30    1
    23    30    31    1
    24    30    32    1
    25    12    13   ar
    26    13    14   ar
    27    14    16    1
    28    16    17    1
    29    16    18    1
    30    16    19    1
    31    14    15   ar
    32    15    10   ar
    33     8     1    1
    34     7     3   ar
    35    25    20   ar
@<TRIPOS>MOLECULE
*****
 32 35 0 0 0
SMALL
GASTEIGER

@<TRIPOS>ATOM
      1 N          65.3807   91.7379   12.4560 N.pl3   1  UNL1       -0.2853
      2 C          64.4131   90.7569   11.8631 C.3     1  UNL1        0.1220
      3 C          64.2396   89.6300   12.8377 C.ar    1  UNL1        0.0337
      4 C          63.5344   88.3273   13.0736 C.ar    1  UNL1        0.0990
      5 N          63.9589   87.8067   14.4147 N.ar    1  UNL1       -0.2287
      6 N          64.9265   88.7876   15.0077 N.ar    1  UNL1       -0.1681
      7 C          65.1000   89.9145   14.0331 C.ar    1  UNL1        0.0960
      8 C          65.8053   91.2171   13.7972 C.3     1  UNL1        0.1160
      9 C          66.2319   96.8560   12.7399 C.3     1  UNL1        0.0737
     10 C          66.2682   95.5742   11.9616 C.ar    1  UNL1        0.1409
     11 N          65.8063   94.2969   12.5979 N.ar    1  UNL1       -0.2160
     12 C          65.8427   93.0151   11.8196 C.ar    1  UNL1        0.1350
     13 C          66.3410   93.0108   10.4048 C.ar    1  UNL1        0.0574
     14 C          66.8030   94.2881    9.7683 C.ar    1  UNL1        0.1567
     15 N          66.7666   95.5698   10.5467 N.ar    1  UNL1       -0.2266
     16 C          67.3014   94.2837    8.3536 C.3     1  UNL1        0.4350
     17 F          67.7997   94.2794    6.9388 F       1  UNL1       -0.1644
     18 F          68.0923   93.0409    8.6360 F       1  UNL1       -0.1644
     19 F          66.5104   95.5266    8.0712 F       1  UNL1       -0.1644
     20 C          63.4970   86.5294   15.0512 C.ar    1  UNL1        0.0841
     21 C          62.9944   86.5346   16.4645 C.ar    1  UNL1        0.0192
     22 C          62.5325   85.2572   17.1009 C.ar    1  UNL1        0.0029
     23 C          62.5731   83.9746   16.3241 C.ar    1  UNL1        0.0184
     24 C          63.0757   83.9695   14.9108 C.ar    1  UNL1        0.1072
     25 C          63.5376   85.2468   14.2744 C.ar    1  UNL1        0.0375
     26 S          63.1163   82.6870   14.1339 S.O2    1  UNL1        0.0105
     27 C          63.1571   81.4046   13.3569 C.3     1  UNL1        0.1816
     28 O          61.7521   82.3327   14.6471 O.2     1  UNL1       -0.1686
     29 O          64.4806   83.0413   13.6206 O.2     1  UNL1       -0.1686
     30 C          66.7663   91.8824   14.7374 C.3     1  UNL1        0.0240
     31 C          68.2243   91.9547   14.3924 C.3     1  UNL1        0.0021
     32 C          66.2693   92.4752   16.0225 C.3     1  UNL1        0.0021
@<TRIPOS>BOND
     1     9    10    1
     2    10    11   ar
     3    11    12   ar
     4    12     1    1
     5     1     2    1
     6     2     3    1
     7     3     4   ar
     8     4     5   ar
     9     5    20    1
    10    20    21   ar
    11    21    22   ar
    12    22    23   ar
    13    23    24   ar
    14    24    26    1
    15    26    27    1
    16    26    28    2
    17    26    29    2
    18    24    25   ar
    19     5     6   ar
    20     6     7   ar
    21     7     8    1
    22     8    30    1
    23    30    31    1
    24    30    32    1
    25    12    13   ar
    26    13    14   ar
    27    14    16    1
    28    16    17    1
    29    16    18    1
    30    16    19    1
    31    14    15   ar
    32    15    10   ar
    33     8     1    1
    34     7     3   ar
    35    25    20   ar
@<TRIPOS>MOLECULE
*****
 32 35 0 0 0
SMALL
GASTEIGER

@<TRIPOS>ATOM
      1 N          60.3087   88.4434    7.9972 N.pl3   1  UNL1       -0.2853
      2 C          60.4706   86.9578    7.8665 C.3     1  UNL1        0.1220
      3 C          61.1052   86.4480    9.1265 C.ar    1  UNL1        0.0337
      4 C          61.5974   85.2149    9.8244 C.ar    1  UNL1        0.0990
      5 N          62.1319   85.6233   11.1651 N.ar    1  UNL1       -0.2287
      6 N          61.9700   87.1088   11.2959 N.ar    1  UNL1       -0.1681
      7 C          61.3355   87.6185   10.0359 C.ar    1  UNL1        0.0960
      8 C          60.8433   88.8517    9.3380 C.3     1  UNL1        0.1160
      9 C          56.1447   90.5131    5.6783 C.3     1  UNL1        0.0737
     10 C          57.6344   90.3945    5.8085 C.ar    1  UNL1        0.1409
     11 N          58.2267   89.4782    6.8378 N.ar    1  UNL1       -0.2160
     12 C          59.7164   89.3596    6.9679 C.ar    1  UNL1        0.1350
     13 C          60.6136   90.1573    6.0687 C.ar    1  UNL1        0.0574
     14 C          60.0213   91.0737    5.0394 C.ar    1  UNL1        0.1567
     15 N          58.5317   91.1922    4.9092 N.ar    1  UNL1       -0.2266
     16 C          60.9185   91.8714    4.1401 C.3     1  UNL1        0.4350
     17 F          61.8157   92.6691    3.2409 F       1  UNL1       -0.1644
     18 F          62.0326   90.8981    4.3883 F       1  UNL1       -0.1644
     19 F          59.8044   92.8447    3.8921 F       1  UNL1       -0.1644
     20 C          62.7242   84.7070   12.1945 C.ar    1  UNL1        0.0841
     21 C          63.5801   85.2658   13.2923 C.ar    1  UNL1        0.0192
     22 C          64.1725   84.3494   14.3216 C.ar    1  UNL1        0.0029
     23 C          63.9089   82.8743   14.2531 C.ar    1  UNL1        0.0184
     24 C          63.0531   82.3155   13.1553 C.ar    1  UNL1        0.1072
     25 C          62.4607   83.2319   12.1260 C.ar    1  UNL1        0.0375
     26 S          62.7895   80.8405   13.0868 S.O2    1  UNL1        0.0105
     27 C          62.5259   79.3655   13.0182 C.3     1  UNL1        0.1816
     28 O          62.7064   80.7857   14.5835 O.2     1  UNL1       -0.1686
     29 O          62.8726   80.8953   11.5900 O.2     1  UNL1       -0.1686
     30 C          60.8792   90.2480    9.8848 C.3     1  UNL1        0.0240
     31 C          59.6698   90.8188   10.5643 C.3     1  UNL1        0.0021
     32 C          62.1246   91.0735    9.7522 C.3     1  UNL1        0.0021
@<TRIPOS>BOND
     1     9    10    1
     2    10    11   ar
     3    11    12   ar
     4    12     1    1
     5     1     2    1
     6     2     3    1
     7     3     4   ar
     8     4     5   ar
     9     5    20    1
    10    20    21   ar
    11    21    22   ar
    12    22    23   ar
    13    23    24   ar
    14    24    26    1
    15    26    27    1
    16    26    28    2
    17    26    29    2
    18    24    25   ar
    19     5     6   ar
    20     6     7   ar
    21     7     8    1
    22     8    30    1
    23    30    31    1
    24    30    32    1
    25    12    13   ar
    26    13    14   ar
    27    14    16    1
    28    16    17    1
    29    16    18    1
    30    16    19    1
    31    14    15   ar
    32    15    10   ar
    33     8     1    1
    34     7     3   ar
    35    25    20   ar
@<TRIPOS>MOLECULE
*****
 32 35 0 0 0
SMALL
GASTEIGER

@<TRIPOS>ATOM
      1 N          63.1932   84.4722   13.0706 N.pl3   1  UNL1       -0.2853
      2 C          63.9042   84.9217   14.3126 C.3     1  UNL1        0.1220
      3 C          64.0874   86.4082   14.2295 C.ar    1  UNL1        0.0337
      4 C          64.6400   87.6047   14.9458 C.ar    1  UNL1        0.0990
      5 N          64.3839   88.8133   14.0952 N.ar    1  UNL1       -0.2287
      6 N          63.6729   88.3638   12.8532 N.ar    1  UNL1       -0.1681
      7 C          63.4897   86.8773   12.9362 C.ar    1  UNL1        0.0960
      8 C          62.9370   85.6809   12.2200 C.3     1  UNL1        0.1160
      9 C          63.6209   80.2902   10.0164 C.3     1  UNL1        0.0737
     10 C          63.0202   80.9708   11.2106 C.ar    1  UNL1        0.1409
     11 N          63.4070   82.3812   11.5435 N.ar    1  UNL1       -0.2160
     12 C          62.8063   83.0618   12.7377 C.ar    1  UNL1        0.1350
     13 C          61.8188   82.3317   13.5990 C.ar    1  UNL1        0.0574
     14 C          61.4319   80.9212   13.2661 C.ar    1  UNL1        0.1567
     15 N          62.0326   80.2407   12.0720 N.ar    1  UNL1       -0.2266
     16 C          60.4443   80.1912   14.1274 C.3     1  UNL1        0.4350
     17 F          59.4567   79.4613   14.9886 F       1  UNL1       -0.1644
     18 F          61.2728   78.9453   14.0214 F       1  UNL1       -0.1644
     19 F          59.6158   81.4372   14.2333 F       1  UNL1       -0.1644
     20 C          64.7707   90.2238   14.4280 C.ar    1  UNL1        0.0841
     21 C          64.6707   90.7152   15.8417 C.ar    1  UNL1        0.0192
     22 C          65.0576   92.1257   16.1745 C.ar    1  UNL1        0.0029
     23 C          65.5445   93.0449   15.0937 C.ar    1  UNL1        0.0184
     24 C          65.6444   92.5535   13.6800 C.ar    1  UNL1        0.1072
     25 C          65.2576   91.1429   13.3472 C.ar    1  UNL1        0.0375
     26 S          66.1313   93.4725   12.5991 S.O2    1  UNL1        0.0105
     27 C          66.6181   94.3915   11.5182 C.3     1  UNL1        0.1816
     28 O          66.1719   94.6058   13.5809 O.2     1  UNL1       -0.1686
     29 O          66.0906   92.3392   11.6173 O.2     1  UNL1       -0.1686
     30 C          62.2490   85.6912   10.8871 C.3     1  UNL1        0.0240
     31 C          60.9488   86.4203   10.7199 C.3     1  UNL1        0.0021
     32 C          62.8612   84.9726    9.7215 C.3     1  UNL1        0.0021
@<TRIPOS>BOND
     1     9    10    1
     2    10    11   ar
     3    11    12   ar
     4    12     1    1
     5     1     2    1
     6     2     3    1
     7     3     4   ar
     8     4     5   ar
     9     5    20    1
    10    20    21   ar
    11    21    22   ar
    12    22    23   ar
    13    23    24   ar
    14    24    26    1
    15    26    27    1
    16    26    28    2
    17    26    29    2
    18    24    25   ar
    19     5     6   ar
    20     6     7   ar
    21     7     8    1
    22     8    30    1
    23    30    31    1
    24    30    32    1
    25    12    13   ar
    26    13    14   ar
    27    14    16    1
    28    16    17    1
    29    16    18    1
    30    16    19    1
    31    14    15   ar
    32    15    10   ar
    33     8     1    1
    34     7     3   ar
    35    25    20   ar
