@<TRIPOS>MOLECULE
*****
 27 30 0 0 0
SMALL
GASTEIGER

@<TRIPOS>ATOM
      1 C          63.0031   87.7721   12.3739 C.ar    1  UNL1        0.0814
      2 C          62.1539   88.1057   11.1833 C.ar    1  UNL1        0.0381
      3 C          61.4843   87.0094   10.4089 C.ar    1  UNL1        0.1034
      4 C          61.6638   85.5796   10.8251 C.ar    1  UNL1        0.1005
      5 N          62.5129   85.2459   12.0157 N.ar    1  UNL1       -0.2905
      6 C          62.8708   83.9389   12.6587 C.ar    1  UNL1        0.0567
      7 C          62.4175   82.5817   12.2088 C.3     1  UNL1        0.0517
      8 C          63.7617   84.2273   13.8305 C.ar    1  UNL1        0.0730
      9 C          64.3556   83.2091   14.7583 C.3     1  UNL1        0.0534
     10 N          63.9544   85.7127   13.9118 N.ar    1  UNL1       -0.2299
     11 C          63.1826   86.3422   12.7901 C.ar    1  UNL1        0.1604
     12 N          60.6351   87.3430    9.2182 N.ar    1  UNL1       -0.2064
     13 C          59.9722   86.3560    8.3036 C.ar    1  UNL1        0.2017
     14 N          59.2272   87.1252    7.2533 N.ar    1  UNL1       -0.2004
     15 C          59.4296   88.5877    7.5186 C.ar    1  UNL1        0.2214
     16 N          60.2997   88.7222    8.7330 N.ar    1  UNL1       -0.1408
     17 N          63.6728   88.8684   13.1484 N.pl3   1  UNL1       -0.3267
     18 H          64.3720   88.6501   13.8061 H       1  UNL1        0.1472
     19 C          63.2770   90.2972   12.9206 C.3     1  UNL1        0.1137
     20 C          63.2485   91.3446   10.1096 C.3     1  UNL1        0.0307
     21 C          64.2896   91.8229   11.0776 C.ar    1  UNL1       -0.0245
     22 C          65.3166   92.8250   10.6402 C.ar    1  UNL1       -0.0045
     23 C          66.3577   93.3033   11.6083 C.ar    1  UNL1       -0.0007
     24 C          66.3720   92.7796   13.0138 C.ar    1  UNL1       -0.0045
     25 C          65.3451   91.7776   13.4513 C.ar    1  UNL1       -0.0245
     26 C          65.3594   91.2539   14.8568 C.3     1  UNL1        0.0307
     27 C          64.3039   91.2992   12.4832 C.ar    1  UNL1       -0.0105
@<TRIPOS>BOND
     1    20    21    1
     2    21    22   ar
     3    22    23   ar
     4    23    24   ar
     5    24    25   ar
     6    25    26    1
     7    25    27   ar
     8    27    19    1
     9    19    17    1
    10    17     1    1
    11     1     2   ar
    12     2     3   ar
    13     3    12    1
    14    12    13   ar
    15    13    14   ar
    16    14    15   ar
    17    15    16   ar
    18     3     4   ar
    19     4     5   ar
    20     5     6   ar
    21     6     7    1
    22     6     8   ar
    23     8     9    1
    24     8    10   ar
    25    10    11   ar
    26    27    21   ar
    27    11     1   ar
    28    16    12   ar
    29    11     5   ar
    30    17    18    1
@<TRIPOS>MOLECULE
*****
 27 30 0 0 0
SMALL
GASTEIGER

@<TRIPOS>ATOM
      1 C          62.8998   86.5499   12.5471 C.ar    1  UNL1        0.0814
      2 C          62.0728   86.1605   11.3579 C.ar    1  UNL1        0.0381
      3 C          61.6717   87.1977   10.3513 C.ar    1  UNL1        0.1034
      4 C          62.0976   88.6243   10.5340 C.ar    1  UNL1        0.1005
      5 N          62.9246   89.0137   11.7233 N.ar    1  UNL1       -0.2905
      6 C          63.4886   90.3314   12.1655 C.ar    1  UNL1        0.0567
      7 C          63.3306   91.6418   11.4530 C.3     1  UNL1        0.0517
      8 C          64.2384   90.1085   13.4455 C.ar    1  UNL1        0.0730
      9 C          64.9618   91.1571   14.2376 C.3     1  UNL1        0.0534
     10 N          64.1377   88.6532   13.7943 N.ar    1  UNL1       -0.2299
     11 C          63.3257   87.9765   12.7298 C.ar    1  UNL1        0.1604
     12 N          60.8446   86.8083    9.1620 N.ar    1  UNL1       -0.2064
     13 C          61.2268   85.8079    8.1118 C.ar    1  UNL1        0.2017
     14 N          60.1085   85.7323    7.1148 N.ar    1  UNL1       -0.2004
     15 C          59.0352   86.6861    7.5490 C.ar    1  UNL1        0.2214
     16 N          59.4902   87.3511    8.8142 N.ar    1  UNL1       -0.1408
     17 N          63.3010   85.5127   13.5538 N.pl3   1  UNL1       -0.3267
     18 H          63.0043   85.5936   14.4890 H       1  UNL1        0.1472
     19 C          64.1543   84.3521   13.1355 C.3     1  UNL1        0.1137
     20 C          62.7549   83.0937   15.4717 C.3     1  UNL1        0.0307
     21 C          62.8493   82.3572   14.1684 C.ar    1  UNL1       -0.0245
     22 C          62.2439   80.9914   14.0331 C.ar    1  UNL1       -0.0045
     23 C          62.3383   80.2549   12.7298 C.ar    1  UNL1       -0.0007
     24 C          63.0380   80.8841   11.5617 C.ar    1  UNL1       -0.0045
     25 C          63.6433   82.2498   11.6969 C.ar    1  UNL1       -0.0245
     26 C          64.3430   82.8791   10.5288 C.3     1  UNL1        0.0307
     27 C          63.5490   82.9864   13.0003 C.ar    1  UNL1       -0.0105
@<TRIPOS>BOND
     1    20    21    1
     2    21    22   ar
     3    22    23   ar
     4    23    24   ar
     5    24    25   ar
     6    25    26    1
     7    25    27   ar
     8    27    19    1
     9    19    17    1
    10    17     1    1
    11     1     2   ar
    12     2     3   ar
    13     3    12    1
    14    12    13   ar
    15    13    14   ar
    16    14    15   ar
    17    15    16   ar
    18     3     4   ar
    19     4     5   ar
    20     5     6   ar
    21     6     7    1
    22     6     8   ar
    23     8     9    1
    24     8    10   ar
    25    10    11   ar
    26    27    21   ar
    27    11     1   ar
    28    16    12   ar
    29    11     5   ar
    30    17    18    1
@<TRIPOS>MOLECULE
*****
 27 30 0 0 0
SMALL
GASTEIGER

@<TRIPOS>ATOM
      1 C          62.8687   86.5338   12.5244 C.ar    1  UNL1        0.0814
      2 C          62.0361   86.1547   11.3357 C.ar    1  UNL1        0.0381
      3 C          61.6425   87.1979   10.3323 C.ar    1  UNL1        0.1034
      4 C          62.0816   88.6202   10.5177 C.ar    1  UNL1        0.1005
      5 N          62.9142   88.9993   11.7063 N.ar    1  UNL1       -0.2905
      6 C          63.4908   90.3107   12.1508 C.ar    1  UNL1        0.0567
      7 C          63.3434   91.6242   11.4416 C.3     1  UNL1        0.0517
      8 C          64.2408   90.0781   13.4288 C.ar    1  UNL1        0.0730
      9 C          64.9750   91.1182   14.2221 C.3     1  UNL1        0.0534
     10 N          64.1276   88.6228   13.7743 N.ar    1  UNL1       -0.2299
     11 C          63.3077   87.9561   12.7097 C.ar    1  UNL1        0.1604
     12 N          60.8099   86.8188    9.1436 N.ar    1  UNL1       -0.2064
     13 C          61.1766   85.8099    8.0959 C.ar    1  UNL1        0.2017
     14 N          60.0577   85.7497    7.0986 N.ar    1  UNL1       -0.2004
     15 C          58.9995   86.7213    7.5300 C.ar    1  UNL1        0.2214
     16 N          59.4644   87.3821    8.7939 N.ar    1  UNL1       -0.1408
     17 N          63.2623   85.4906   13.5279 N.pl3   1  UNL1       -0.3267
     18 H          62.9435   85.5562   14.4570 H       1  UNL1        0.1472
     19 C          64.1417   84.3474   13.1156 C.3     1  UNL1        0.1137
     20 C          64.3402   82.9525   10.4671 C.3     1  UNL1        0.0307
     21 C          63.6576   82.2787   11.6204 C.ar    1  UNL1       -0.0245
     22 C          63.0742   80.9074   11.4494 C.ar    1  UNL1       -0.0045
     23 C          62.3915   80.2336   12.6026 C.ar    1  UNL1       -0.0007
     24 C          62.2923   80.9311   13.9269 C.ar    1  UNL1       -0.0045
     25 C          62.8756   82.3024   14.0979 C.ar    1  UNL1       -0.0245
     26 C          62.7764   82.9999   15.4222 C.3     1  UNL1        0.0307
     27 C          63.5583   82.9762   12.9446 C.ar    1  UNL1       -0.0105
@<TRIPOS>BOND
     1    20    21    1
     2    21    22   ar
     3    22    23   ar
     4    23    24   ar
     5    24    25   ar
     6    25    26    1
     7    25    27   ar
     8    27    19    1
     9    19    17    1
    10    17     1    1
    11     1     2   ar
    12     2     3   ar
    13     3    12    1
    14    12    13   ar
    15    13    14   ar
    16    14    15   ar
    17    15    16   ar
    18     3     4   ar
    19     4     5   ar
    20     5     6   ar
    21     6     7    1
    22     6     8   ar
    23     8     9    1
    24     8    10   ar
    25    10    11   ar
    26    27    21   ar
    27    11     1   ar
    28    16    12   ar
    29    11     5   ar
    30    17    18    1
@<TRIPOS>MOLECULE
*****
 27 30 0 0 0
SMALL
GASTEIGER

@<TRIPOS>ATOM
      1 C          63.7864   87.2567   13.8985 C.ar    1  UNL1        0.0814
      2 C          64.3753   88.3765   14.7043 C.ar    1  UNL1        0.0381
      3 C          64.3098   89.7846   14.1914 C.ar    1  UNL1        0.1034
      4 C          63.6555   90.0728   12.8728 C.ar    1  UNL1        0.1005
      5 N          63.0666   88.9530   12.0671 N.ar    1  UNL1       -0.2905
      6 C          62.3637   88.9315   10.7421 C.ar    1  UNL1        0.0567
      7 C          62.0796   90.1223    9.8754 C.3     1  UNL1        0.0517
      8 C          61.9948   87.5102   10.4361 C.ar    1  UNL1        0.0730
      9 C          61.2770   87.0301    9.2096 C.3     1  UNL1        0.0534
     10 N          62.4697   86.6532   11.5719 N.ar    1  UNL1       -0.2299
     11 C          63.1321   87.5450   12.5799 C.ar    1  UNL1        0.1604
     12 N          64.8987   90.9045   14.9972 N.ar    1  UNL1       -0.2064
     13 C          64.2469   91.5912   16.1606 C.ar    1  UNL1        0.2017
     14 N          65.1881   92.6453   16.6634 N.ar    1  UNL1       -0.2004
     15 C          66.4218   92.6101   15.8107 C.ar    1  UNL1        0.2214
     16 N          66.2429   91.5342   14.7809 N.ar    1  UNL1       -0.1408
     17 N          63.8519   85.8486   14.4114 N.pl3   1  UNL1       -0.3267
     18 H          63.5528   85.6437   15.3267 H       1  UNL1        0.1472
     19 C          64.3731   84.7528   13.5296 C.3     1  UNL1        0.1137
     20 C          62.6483   83.7514   15.7708 C.3     1  UNL1        0.0307
     21 C          62.7241   82.9859   14.4831 C.ar    1  UNL1       -0.0245
     22 C          61.9375   81.7196   14.3159 C.ar    1  UNL1       -0.0045
     23 C          62.0133   80.9541   13.0282 C.ar    1  UNL1       -0.0007
     24 C          62.8757   81.4547   11.9077 C.ar    1  UNL1       -0.0045
     25 C          63.6622   82.7209   12.0748 C.ar    1  UNL1       -0.0245
     26 C          64.5246   83.2216   10.9542 C.3     1  UNL1        0.0307
     27 C          63.5865   83.4866   13.3625 C.ar    1  UNL1       -0.0105
@<TRIPOS>BOND
     1    20    21    1
     2    21    22   ar
     3    22    23   ar
     4    23    24   ar
     5    24    25   ar
     6    25    26    1
     7    25    27   ar
     8    27    19    1
     9    19    17    1
    10    17     1    1
    11     1     2   ar
    12     2     3   ar
    13     3    12    1
    14    12    13   ar
    15    13    14   ar
    16    14    15   ar
    17    15    16   ar
    18     3     4   ar
    19     4     5   ar
    20     5     6   ar
    21     6     7    1
    22     6     8   ar
    23     8     9    1
    24     8    10   ar
    25    10    11   ar
    26    27    21   ar
    27    11     1   ar
    28    16    12   ar
    29    11     5   ar
    30    17    18    1
@<TRIPOS>MOLECULE
*****
 27 30 0 0 0
SMALL
GASTEIGER

@<TRIPOS>ATOM
      1 C          62.2538   87.2359   11.7842 C.ar    1  UNL1        0.0814
      2 C          63.1031   88.3843   12.2419 C.ar    1  UNL1        0.0381
      3 C          63.0759   89.6829   11.4917 C.ar    1  UNL1        0.1034
      4 C          62.1993   89.8330   10.2838 C.ar    1  UNL1        0.1005
      5 N          61.3499   88.6845    9.8261 N.ar    1  UNL1       -0.2905
      6 C          60.3938   88.5376    8.6798 C.ar    1  UNL1        0.0567
      7 C          60.0599   89.5945    7.6691 C.3     1  UNL1        0.0517
      8 C          59.8301   87.1481    8.7215 C.ar    1  UNL1        0.0730
      9 C          58.8336   86.5717    7.7598 C.3     1  UNL1        0.0534
     10 N          60.4379   86.4363    9.8936 N.ar    1  UNL1       -0.2299
     11 C          61.3772   87.3859   10.5763 C.ar    1  UNL1        0.1604
     12 N          63.9253   90.8315   11.9494 N.ar    1  UNL1       -0.2064
     13 C          64.2884   91.1484   13.3698 C.ar    1  UNL1        0.2017
     14 N          65.1482   92.3776   13.3652 N.ar    1  UNL1       -0.2004
     15 C          65.3164   92.8203   11.9419 C.ar    1  UNL1        0.2214
     16 N          64.5606   91.8648   11.0669 N.ar    1  UNL1       -0.1408
     17 N          62.2810   85.9372   12.5345 N.pl3   1  UNL1       -0.3267
     18 H          61.5444   85.7060   13.1453 H       1  UNL1        0.1472
     19 C          63.4307   84.9907   12.3540 C.3     1  UNL1        0.1137
     20 C          62.4756   83.6379   14.8555 C.3     1  UNL1        0.0307
     21 C          62.7139   82.8336   13.6121 C.ar    1  UNL1       -0.0245
     22 C          62.4746   81.3528   13.6193 C.ar    1  UNL1       -0.0045
     23 C          62.7128   80.5484   12.3759 C.ar    1  UNL1       -0.0007
     24 C          63.1903   81.2248   11.1251 C.ar    1  UNL1       -0.0045
     25 C          63.4296   82.7056   11.1178 C.ar    1  UNL1       -0.0245
     26 C          63.9071   83.3820    9.8670 C.3     1  UNL1        0.0307
     27 C          63.1914   83.5100   12.3613 C.ar    1  UNL1       -0.0105
@<TRIPOS>BOND
     1    20    21    1
     2    21    22   ar
     3    22    23   ar
     4    23    24   ar
     5    24    25   ar
     6    25    26    1
     7    25    27   ar
     8    27    19    1
     9    19    17    1
    10    17     1    1
    11     1     2   ar
    12     2     3   ar
    13     3    12    1
    14    12    13   ar
    15    13    14   ar
    16    14    15   ar
    17    15    16   ar
    18     3     4   ar
    19     4     5   ar
    20     5     6   ar
    21     6     7    1
    22     6     8   ar
    23     8     9    1
    24     8    10   ar
    25    10    11   ar
    26    27    21   ar
    27    11     1   ar
    28    16    12   ar
    29    11     5   ar
    30    17    18    1
@<TRIPOS>MOLECULE
*****
 27 30 0 0 0
SMALL
GASTEIGER

@<TRIPOS>ATOM
      1 C          62.2505   87.2333   11.7723 C.ar    1  UNL1        0.0814
      2 C          63.1018   88.3798   12.2315 C.ar    1  UNL1        0.0381
      3 C          63.0778   89.6789   11.4822 C.ar    1  UNL1        0.1034
      4 C          62.2026   89.8316   10.2736 C.ar    1  UNL1        0.1005
      5 N          61.3513   88.6852    9.8143 N.ar    1  UNL1       -0.2905
      6 C          60.3959   88.5409    8.6670 C.ar    1  UNL1        0.0567
      7 C          60.0651   89.5993    7.6568 C.3     1  UNL1        0.0517
      8 C          59.8294   87.1526    8.7073 C.ar    1  UNL1        0.0730
      9 C          58.8325   86.5789    7.7443 C.3     1  UNL1        0.0534
     10 N          60.4346   86.4388    9.8795 N.ar    1  UNL1       -0.2299
     11 C          61.3753   87.3860   10.5637 C.ar    1  UNL1        0.1604
     12 N          63.9291   90.8255   11.9414 N.ar    1  UNL1       -0.2064
     13 C          64.2913   91.1409   13.3624 C.ar    1  UNL1        0.2017
     14 N          65.1537   92.3682   13.3594 N.ar    1  UNL1       -0.2004
     15 C          65.3245   92.8113   11.9365 C.ar    1  UNL1        0.2214
     16 N          64.5677   91.8578   11.0601 N.ar    1  UNL1       -0.1408
     17 N          62.2744   85.9341   12.5216 N.pl3   1  UNL1       -0.3267
     18 H          61.5327   85.7003   13.1253 H       1  UNL1        0.1472
     19 C          63.4284   84.9911   12.3511 C.3     1  UNL1        0.1137
     20 C          63.9321   83.3839    9.8684 C.3     1  UNL1        0.0307
     21 C          63.4453   82.7060   11.1148 C.ar    1  UNL1       -0.0245
     22 C          63.2103   81.2245   11.1199 C.ar    1  UNL1       -0.0045
     23 C          62.7235   80.5466   12.3663 C.ar    1  UNL1       -0.0007
     24 C          62.4717   81.3502   13.6076 C.ar    1  UNL1       -0.0045
     25 C          62.7066   82.8316   13.6025 C.ar    1  UNL1       -0.0245
     26 C          62.4548   83.6352   14.8438 C.3     1  UNL1        0.0307
     27 C          63.1935   83.5096   12.3561 C.ar    1  UNL1       -0.0105
@<TRIPOS>BOND
     1    20    21    1
     2    21    22   ar
     3    22    23   ar
     4    23    24   ar
     5    24    25   ar
     6    25    26    1
     7    25    27   ar
     8    27    19    1
     9    19    17    1
    10    17     1    1
    11     1     2   ar
    12     2     3   ar
    13     3    12    1
    14    12    13   ar
    15    13    14   ar
    16    14    15   ar
    17    15    16   ar
    18     3     4   ar
    19     4     5   ar
    20     5     6   ar
    21     6     7    1
    22     6     8   ar
    23     8     9    1
    24     8    10   ar
    25    10    11   ar
    26    27    21   ar
    27    11     1   ar
    28    16    12   ar
    29    11     5   ar
    30    17    18    1
@<TRIPOS>MOLECULE
*****
 27 30 0 0 0
SMALL
GASTEIGER

@<TRIPOS>ATOM
      1 C          62.3780   88.9921   10.8218 C.ar    1  UNL1        0.0814
      2 C          62.8052   87.8374   11.6786 C.ar    1  UNL1        0.0381
      3 C          62.2480   86.4682   11.4243 C.ar    1  UNL1        0.1034
      4 C          61.2635   86.2537   10.3131 C.ar    1  UNL1        0.1005
      5 N          60.8363   87.4083    9.4562 N.ar    1  UNL1       -0.2905
      6 C          59.8889   87.5014    8.2970 C.ar    1  UNL1        0.0567
      7 C          59.1071   86.3669    7.7040 C.3     1  UNL1        0.0517
      8 C          59.8607   88.9282    7.8349 C.ar    1  UNL1        0.0730
      9 C          59.0456   89.4710    6.6986 C.3     1  UNL1        0.0534
     10 N          60.7905   89.7169    8.7085 N.ar    1  UNL1       -0.2299
     11 C          61.3935   88.7775    9.7106 C.ar    1  UNL1        0.1604
     12 N          62.6752   85.3135   12.2811 N.ar    1  UNL1       -0.2064
     13 C          62.7219   83.8741   11.8616 C.ar    1  UNL1        0.2017
     14 N          63.2063   83.0665   13.0291 N.ar    1  UNL1       -0.2004
     15 C          63.4590   84.0068   14.1703 C.ar    1  UNL1        0.2214
     16 N          63.1308   85.3955   13.7080 N.ar    1  UNL1       -0.1408
     17 N          62.9352   90.3614   11.0762 N.pl3   1  UNL1       -0.3267
     18 H          63.1820   90.9408   10.3194 H       1  UNL1        0.1472
     19 C          63.1164   90.8478   12.4835 C.3     1  UNL1        0.1137
     20 C          64.0905   89.9191   15.1646 C.3     1  UNL1        0.0307
     21 C          64.9643   90.7872   14.3087 C.ar    1  UNL1       -0.0245
     22 C          66.3253   91.1910   14.7933 C.ar    1  UNL1       -0.0045
     23 C          67.1991   92.0592   13.9373 C.ar    1  UNL1       -0.0007
     24 C          66.7121   92.5235   12.5967 C.ar    1  UNL1       -0.0045
     25 C          65.3512   92.1198   12.1121 C.ar    1  UNL1       -0.0245
     26 C          64.8641   92.5841   10.7716 C.3     1  UNL1        0.0307
     27 C          64.4773   91.2516   12.9681 C.ar    1  UNL1       -0.0105
@<TRIPOS>BOND
     1    20    21    1
     2    21    22   ar
     3    22    23   ar
     4    23    24   ar
     5    24    25   ar
     6    25    26    1
     7    25    27   ar
     8    27    19    1
     9    19    17    1
    10    17     1    1
    11     1     2   ar
    12     2     3   ar
    13     3    12    1
    14    12    13   ar
    15    13    14   ar
    16    14    15   ar
    17    15    16   ar
    18     3     4   ar
    19     4     5   ar
    20     5     6   ar
    21     6     7    1
    22     6     8   ar
    23     8     9    1
    24     8    10   ar
    25    10    11   ar
    26    27    21   ar
    27    11     1   ar
    28    16    12   ar
    29    11     5   ar
    30    17    18    1
@<TRIPOS>MOLECULE
*****
 27 30 0 0 0
SMALL
GASTEIGER

@<TRIPOS>ATOM
      1 C          62.3839   88.9823   10.8390 C.ar    1  UNL1        0.0814
      2 C          62.8090   87.8265   11.6953 C.ar    1  UNL1        0.0381
      3 C          62.2533   86.4574   11.4369 C.ar    1  UNL1        0.1034
      4 C          61.2726   86.2442   10.3222 C.ar    1  UNL1        0.1005
      5 N          60.8474   87.4000    9.4659 N.ar    1  UNL1       -0.2905
      6 C          59.9038   87.4946    8.3038 C.ar    1  UNL1        0.0567
      7 C          59.1245   86.3606    7.7064 C.3     1  UNL1        0.0517
      8 C          59.8762   88.9221    7.8440 C.ar    1  UNL1        0.0730
      9 C          59.0644   89.4663    6.7059 C.3     1  UNL1        0.0534
     10 N          60.8028   89.7098    8.7219 N.ar    1  UNL1       -0.2299
     11 C          61.4031   88.7691    9.7243 C.ar    1  UNL1        0.1604
     12 N          62.6785   85.3015   12.2932 N.ar    1  UNL1       -0.2064
     13 C          62.7409   83.8647   11.8671 C.ar    1  UNL1        0.2017
     14 N          63.2168   83.0547   13.0365 N.ar    1  UNL1       -0.2004
     15 C          63.4485   83.9910   14.1854 C.ar    1  UNL1        0.2214
     16 N          63.1158   85.3796   13.7259 N.ar    1  UNL1       -0.1408
     17 N          62.9395   90.3515   11.0975 N.pl3   1  UNL1       -0.3267
     18 H          63.1803   90.9356   10.3424 H       1  UNL1        0.1472
     19 C          63.1282   90.8307   12.5063 C.3     1  UNL1        0.1137
     20 C          64.8538   92.5677   10.7727 C.3     1  UNL1        0.0307
     21 C          65.3515   92.1165   12.1139 C.ar    1  UNL1       -0.0245
     22 C          66.7120   92.5337   12.5883 C.ar    1  UNL1       -0.0045
     23 C          67.2096   92.0826   13.9294 C.ar    1  UNL1       -0.0007
     24 C          66.3468   91.2141   14.7962 C.ar    1  UNL1       -0.0045
     25 C          64.9864   90.7968   14.3219 C.ar    1  UNL1       -0.0245
     26 C          64.1236   89.9283   15.1886 C.3     1  UNL1        0.0307
     27 C          64.4887   91.2480   12.9806 C.ar    1  UNL1       -0.0105
@<TRIPOS>BOND
     1    20    21    1
     2    21    22   ar
     3    22    23   ar
     4    23    24   ar
     5    24    25   ar
     6    25    26    1
     7    25    27   ar
     8    27    19    1
     9    19    17    1
    10    17     1    1
    11     1     2   ar
    12     2     3   ar
    13     3    12    1
    14    12    13   ar
    15    13    14   ar
    16    14    15   ar
    17    15    16   ar
    18     3     4   ar
    19     4     5   ar
    20     5     6   ar
    21     6     7    1
    22     6     8   ar
    23     8     9    1
    24     8    10   ar
    25    10    11   ar
    26    27    21   ar
    27    11     1   ar
    28    16    12   ar
    29    11     5   ar
    30    17    18    1
@<TRIPOS>MOLECULE
*****
 27 30 0 0 0
SMALL
GASTEIGER

@<TRIPOS>ATOM
      1 C          62.9700   87.4849   12.2859 C.ar    1  UNL1        0.0814
      2 C          63.2559   86.1019   12.7911 C.ar    1  UNL1        0.0381
      3 C          62.6724   84.9115   12.0894 C.ar    1  UNL1        0.1034
      4 C          61.8030   85.1043   10.8823 C.ar    1  UNL1        0.1005
      5 N          61.5171   86.4873   10.3771 N.ar    1  UNL1       -0.2905
      6 C          60.7024   86.9848    9.2200 C.ar    1  UNL1        0.0567
      7 C          59.9413   86.1338    8.2471 C.3     1  UNL1        0.0517
      8 C          60.7824   88.4826    9.2067 C.ar    1  UNL1        0.0730
      9 C          60.1153   89.3924    8.2180 C.3     1  UNL1        0.0534
     10 N          61.6465   88.9109   10.3555 N.ar    1  UNL1       -0.2299
     11 C          62.1006   87.6777   11.0788 C.ar    1  UNL1        0.1604
     12 N          62.9583   83.5284   12.5946 N.ar    1  UNL1       -0.2064
     13 C          63.2231   83.1480   14.0212 C.ar    1  UNL1        0.2017
     14 N          63.4580   81.6674   14.0702 N.ar    1  UNL1       -0.2004
     15 C          63.3384   81.1326   12.6738 C.ar    1  UNL1        0.2214
     16 N          63.0296   82.2828   11.7619 N.ar    1  UNL1       -0.1408
     17 N          63.5536   88.6754   12.9876 N.pl3   1  UNL1       -0.3267
     18 H          64.2250   88.5487   13.6964 H       1  UNL1        0.1472
     19 C          63.1140   90.0588   12.6095 C.3     1  UNL1        0.1137
     20 C          63.3585   91.4062    9.9403 C.3     1  UNL1        0.0307
     21 C          64.2556   91.8139   11.0711 C.ar    1  UNL1       -0.0245
     22 C          65.2750   92.8953   10.8674 C.ar    1  UNL1       -0.0045
     23 C          66.1721   93.3030   11.9983 C.ar    1  UNL1       -0.0007
     24 C          66.0499   92.6293   13.3329 C.ar    1  UNL1       -0.0045
     25 C          65.0306   91.5479   13.5367 C.ar    1  UNL1       -0.0245
     26 C          64.9084   90.8742   14.8713 C.3     1  UNL1        0.0307
     27 C          64.1334   91.1402   12.4057 C.ar    1  UNL1       -0.0105
@<TRIPOS>BOND
     1    20    21    1
     2    21    22   ar
     3    22    23   ar
     4    23    24   ar
     5    24    25   ar
     6    25    26    1
     7    25    27   ar
     8    27    19    1
     9    19    17    1
    10    17     1    1
    11     1     2   ar
    12     2     3   ar
    13     3    12    1
    14    12    13   ar
    15    13    14   ar
    16    14    15   ar
    17    15    16   ar
    18     3     4   ar
    19     4     5   ar
    20     5     6   ar
    21     6     7    1
    22     6     8   ar
    23     8     9    1
    24     8    10   ar
    25    10    11   ar
    26    27    21   ar
    27    11     1   ar
    28    16    12   ar
    29    11     5   ar
    30    17    18    1
