@<TRIPOS>MOLECULE
*****
 30 33 0 0 0
SMALL
GASTEIGER

@<TRIPOS>ATOM
      1 C          62.8659   89.3652   12.2133 C.2     1  UNL1        0.2320
      2 O          61.6981   88.4616   11.9490 O.2     1  UNL1       -0.2744
      3 N          63.9674   88.9188   13.1284 N.am    1  UNL1       -0.2639
      4 H          64.7339   89.5118   13.3019 H       1  UNL1        0.1567
      5 C          63.9012   87.5690   13.7790 C.ar    1  UNL1        0.1655
      6 N          63.3784   86.3116   13.1500 N.ar    1  UNL1       -0.2239
      7 C          63.5002   85.2050   14.1552 C.ar    1  UNL1        0.0913
      8 C          64.0984   85.7783   15.4056 C.ar    1  UNL1        0.0573
      9 S          64.3462   87.2393   15.1731 S.2     1  UNL1       -0.0508
     10 C          63.0951   83.7759   13.9467 C.ar    1  UNL1        0.0403
     11 C          62.4352   82.8895   14.9611 C.ar    1  UNL1        0.1021
     12 N          62.2110   81.5481   14.3285 N.ar    1  UNL1       -0.2269
     13 C          62.7323   81.6053   12.9232 C.ar    1  UNL1        0.1406
     14 N          62.7800   80.5816   11.8279 N.ar    1  UNL1       -0.3374
     15 C          63.3741   80.9347   10.4966 C.ar    1  UNL1        0.0735
     16 C          63.9205   82.3116   10.2607 C.ar    1  UNL1        0.0186
     17 C          63.8728   83.3353   11.3559 C.ar    1  UNL1        0.0046
     18 C          63.2787   82.9822   12.6872 C.ar    1  UNL1        0.0370
     19 H          62.4213   79.6779   11.9828 H       1  UNL1        0.1674
     20 C          62.9321   90.7150   11.5626 C.3     1  UNL1        0.1117
     21 C          65.9819   92.6016   13.2626 C.ar    1  UNL1        0.1054
     22 C          66.5927   93.2820   12.0735 C.ar    1  UNL1        0.0183
     23 C          65.9834   93.1067   10.7141 C.ar    1  UNL1        0.0010
     24 C          64.7631   92.2510   10.5437 C.ar    1  UNL1       -0.0037
     25 C          64.1523   91.5707   11.7329 C.ar    1  UNL1       -0.0118
     26 C          64.7617   91.7460   13.0923 C.ar    1  UNL1        0.0146
     27 C          67.2006   92.9522   15.9814 C.3     1  UNL1        0.1816
     28 S          66.5912   92.7769   14.6220 S.O2    1  UNL1        0.0104
     29 O          67.9399   92.9654   13.9931 O.2     1  UNL1       -0.1686
     30 O          65.2425   92.5884   15.2508 O.2     1  UNL1       -0.1686
@<TRIPOS>BOND
     1    27    28    1
     2    28    29    2
     3    28    30    2
     4    28    21    1
     5    21    22   ar
     6    22    23   ar
     7    23    24   ar
     8    24    25   ar
     9    25    20    1
    10    20     1    1
    11     1     2    2
    12     1     3   am
    13     3     5    1
    14     5     6   ar
    15     6     7   ar
    16     7    10    1
    17    10    11   ar
    18    11    12   ar
    19    12    13   ar
    20    13    14   ar
    21    14    15   ar
    22    15    16   ar
    23    16    17   ar
    24    17    18   ar
    25     7     8   ar
    26     8     9   ar
    27    25    26   ar
    28    26    21   ar
    29     9     5   ar
    30    18    10   ar
    31    18    13    1
    32     3     4    1
    33    14    19    1
@<TRIPOS>MOLECULE
*****
 30 33 0 0 0
SMALL
GASTEIGER

@<TRIPOS>ATOM
      1 C          62.6988   90.0219   11.8270 C.2     1  UNL1        0.2320
      2 O          62.1720   89.6726   13.1873 O.2     1  UNL1       -0.2744
      3 N          62.8853   88.9480   10.7965 N.am    1  UNL1       -0.2639
      4 H          63.2311   89.1772    9.9037 H       1  UNL1        0.1567
      5 C          62.5451   87.5249   11.1263 C.ar    1  UNL1        0.1655
      6 N          62.9740   86.7775   12.3541 N.ar    1  UNL1       -0.2239
      7 C          62.4102   85.3899   12.2728 C.ar    1  UNL1        0.0913
      8 C          61.6329   85.2796   10.9947 C.ar    1  UNL1        0.0573
      9 S          61.7162   86.5990   10.2861 S.2     1  UNL1       -0.0508
     10 C          62.5918   84.3034   13.2909 C.ar    1  UNL1        0.0403
     11 C          62.7334   84.4972   14.7716 C.ar    1  UNL1        0.1021
     12 N          62.8929   83.1458   15.4027 N.ar    1  UNL1       -0.2269
     13 C          62.8498   82.1168   14.3122 C.ar    1  UNL1        0.1406
     14 N          62.9560   80.6209   14.3390 N.ar    1  UNL1       -0.3374
     15 C          62.8761   79.8403   13.0606 C.ar    1  UNL1        0.0735
     16 C          62.6900   80.5557   11.7554 C.ar    1  UNL1        0.0186
     17 C          62.5839   82.0517   11.7286 C.ar    1  UNL1        0.0046
     18 C          62.6638   82.8323   13.0069 C.ar    1  UNL1        0.0370
     19 H          63.0781   80.1513   15.1956 H       1  UNL1        0.1674
     20 C          63.0391   91.4451   11.4972 C.3     1  UNL1        0.1117
     21 C          66.4418   92.4789   13.2587 C.ar    1  UNL1        0.1054
     22 C          67.2411   92.9468   12.0788 C.ar    1  UNL1        0.0183
     23 C          66.6398   92.9141   10.7050 C.ar    1  UNL1        0.0010
     24 C          65.2390   92.4135   10.5111 C.ar    1  UNL1       -0.0037
     25 C          64.4397   91.9456   11.6911 C.ar    1  UNL1       -0.0118
     26 C          65.0411   91.9784   13.0649 C.ar    1  UNL1        0.0146
     27 C          67.6444   92.5444   16.0063 C.3     1  UNL1        0.1816
     28 S          67.0431   92.5116   14.6325 S.O2    1  UNL1        0.0104
     29 O          68.4059   92.3045   14.0410 O.2     1  UNL1       -0.1686
     30 O          65.6803   92.7188   15.2241 O.2     1  UNL1       -0.1686
@<TRIPOS>BOND
     1    27    28    1
     2    28    29    2
     3    28    30    2
     4    28    21    1
     5    21    22   ar
     6    22    23   ar
     7    23    24   ar
     8    24    25   ar
     9    25    20    1
    10    20     1    1
    11     1     2    2
    12     1     3   am
    13     3     5    1
    14     5     6   ar
    15     6     7   ar
    16     7    10    1
    17    10    11   ar
    18    11    12   ar
    19    12    13   ar
    20    13    14   ar
    21    14    15   ar
    22    15    16   ar
    23    16    17   ar
    24    17    18   ar
    25     7     8   ar
    26     8     9   ar
    27    25    26   ar
    28    26    21   ar
    29     9     5   ar
    30    18    10   ar
    31    18    13    1
    32     3     4    1
    33    14    19    1
@<TRIPOS>MOLECULE
*****
 30 33 0 0 0
SMALL
GASTEIGER

@<TRIPOS>ATOM
      1 C          63.5687   89.1906   13.9726 C.2     1  UNL1        0.2320
      2 O          64.2280   87.9164   14.4103 O.2     1  UNL1       -0.2744
      3 N          62.7494   89.2181   12.7164 N.am    1  UNL1       -0.2639
      4 H          62.3166   90.0544   12.4291 H       1  UNL1        0.1567
      5 C          62.5894   87.9713   11.8980 C.ar    1  UNL1        0.1655
      6 N          63.1011   86.6082   12.2585 N.ar    1  UNL1       -0.2239
      7 C          62.7176   85.6632   11.1586 C.ar    1  UNL1        0.0913
      8 C          61.9688   86.4422   10.1182 C.ar    1  UNL1        0.0573
      9 S          61.8896   87.8687   10.5752 S.2     1  UNL1       -0.0508
     10 C          63.0283   84.1966   11.1080 C.ar    1  UNL1        0.0403
     11 C          63.6461   83.4656    9.9530 C.ar    1  UNL1        0.1021
     12 N          63.7753   82.0207   10.3346 N.ar    1  UNL1       -0.2269
     13 C          63.2374   81.8587   11.7255 C.ar    1  UNL1        0.1406
     14 N          63.1084   80.6605   12.6185 N.ar    1  UNL1       -0.3374
     15 C          62.5177   80.8070   13.9894 C.ar    1  UNL1        0.0735
     16 C          62.0560   82.1517   14.4674 C.ar    1  UNL1        0.0186
     17 C          62.1850   83.3500   13.5744 C.ar    1  UNL1        0.0046
     18 C          62.7757   83.2035   12.2034 C.ar    1  UNL1        0.0370
     19 H          63.4114   79.7778   12.3048 H       1  UNL1        0.1674
     20 C          63.7286   90.4375   14.7911 C.3     1  UNL1        0.1117
     21 C          66.3403   92.6496   12.7822 C.ar    1  UNL1        0.1054
     22 C          67.0939   93.2918   13.9090 C.ar    1  UNL1        0.0183
     23 C          66.7257   92.9825   15.3298 C.ar    1  UNL1        0.0010
     24 C          65.6039   92.0311   15.6239 C.ar    1  UNL1       -0.0037
     25 C          64.8504   91.3889   14.4970 C.ar    1  UNL1       -0.0118
     26 C          65.2186   91.6982   13.0761 C.ar    1  UNL1        0.0146
     27 C          67.0766   93.2681    9.9404 C.3     1  UNL1        0.1816
     28 S          66.7084   92.9589   11.3613 S.O2    1  UNL1        0.0104
     29 O          68.0191   92.2536   11.5474 O.2     1  UNL1       -0.1686
     30 O          65.3977   93.6642   11.1752 O.2     1  UNL1       -0.1686
@<TRIPOS>BOND
     1    27    28    1
     2    28    29    2
     3    28    30    2
     4    28    21    1
     5    21    22   ar
     6    22    23   ar
     7    23    24   ar
     8    24    25   ar
     9    25    20    1
    10    20     1    1
    11     1     2    2
    12     1     3   am
    13     3     5    1
    14     5     6   ar
    15     6     7   ar
    16     7    10    1
    17    10    11   ar
    18    11    12   ar
    19    12    13   ar
    20    13    14   ar
    21    14    15   ar
    22    15    16   ar
    23    16    17   ar
    24    17    18   ar
    25     7     8   ar
    26     8     9   ar
    27    25    26   ar
    28    26    21   ar
    29     9     5   ar
    30    18    10   ar
    31    18    13    1
    32     3     4    1
    33    14    19    1
@<TRIPOS>MOLECULE
*****
 30 33 0 0 0
SMALL
GASTEIGER

@<TRIPOS>ATOM
      1 C          64.2257   85.8097   15.3768 C.2     1  UNL1        0.2320
      2 O          65.6323   86.1708   15.0013 O.2     1  UNL1       -0.2744
      3 N          63.2366   86.8886   15.7049 N.am    1  UNL1       -0.2639
      4 H          62.3133   86.6516   15.9513 H       1  UNL1        0.1567
      5 C          63.6541   88.3285   15.6576 C.ar    1  UNL1        0.1655
      6 N          64.7160   88.9100   14.7720 N.ar    1  UNL1       -0.2239
      7 C          64.8013   90.3806   15.0546 C.ar    1  UNL1        0.0913
      8 C          63.7920   90.7081   16.1149 C.ar    1  UNL1        0.0573
      9 S          63.0830   89.4399   16.4875 S.2     1  UNL1       -0.0508
     10 C          65.7323   91.3531   14.3932 C.ar    1  UNL1        0.0403
     11 C          66.9723   91.9390   15.0006 C.ar    1  UNL1        0.1021
     12 N          67.5931   92.8584   13.9909 N.ar    1  UNL1       -0.2269
     13 C          66.7367   92.8406   12.7595 C.ar    1  UNL1        0.1406
     14 N          66.8555   93.5514   11.4440 N.ar    1  UNL1       -0.3374
     15 C          65.8243   93.3319   10.3771 C.ar    1  UNL1        0.0735
     16 C          64.6742   92.4016   10.6257 C.ar    1  UNL1        0.0186
     17 C          64.5554   91.6908   11.9412 C.ar    1  UNL1        0.0046
     18 C          65.5866   91.9103   13.0081 C.ar    1  UNL1        0.0370
     19 H          67.6104   94.1621   11.2809 H       1  UNL1        0.1674
     20 C          63.8081   84.3698   15.4241 C.3     1  UNL1        0.1117
     21 C          63.0265   83.6864   11.5937 C.ar    1  UNL1        0.1054
     22 C          62.6930   82.2244   11.6288 C.ar    1  UNL1        0.0183
     23 C          62.7311   81.4775   12.9291 C.ar    1  UNL1        0.0010
     24 C          63.1028   82.1926   14.1942 C.ar    1  UNL1       -0.0037
     25 C          63.4364   83.6547   14.1590 C.ar    1  UNL1       -0.0118
     26 C          63.3982   84.4016   12.8587 C.ar    1  UNL1        0.0146
     27 C          62.9502   85.1803    8.9932 C.3     1  UNL1        0.1816
     28 S          62.9884   84.4333   10.2934 S.O2    1  UNL1        0.0104
     29 O          62.0447   85.4322   10.8949 O.2     1  UNL1       -0.1686
     30 O          63.9320   83.4345    9.6919 O.2     1  UNL1       -0.1686
@<TRIPOS>BOND
     1    27    28    1
     2    28    29    2
     3    28    30    2
     4    28    21    1
     5    21    22   ar
     6    22    23   ar
     7    23    24   ar
     8    24    25   ar
     9    25    20    1
    10    20     1    1
    11     1     2    2
    12     1     3   am
    13     3     5    1
    14     5     6   ar
    15     6     7   ar
    16     7    10    1
    17    10    11   ar
    18    11    12   ar
    19    12    13   ar
    20    13    14   ar
    21    14    15   ar
    22    15    16   ar
    23    16    17   ar
    24    17    18   ar
    25     7     8   ar
    26     8     9   ar
    27    25    26   ar
    28    26    21   ar
    29     9     5   ar
    30    18    10   ar
    31    18    13    1
    32     3     4    1
    33    14    19    1
@<TRIPOS>MOLECULE
*****
 30 33 0 0 0
SMALL
GASTEIGER

@<TRIPOS>ATOM
      1 C          63.0696   89.3286   12.2943 C.2     1  UNL1        0.2320
      2 O          61.9252   88.4321   11.9247 O.2     1  UNL1       -0.2744
      3 N          64.0885   88.8702   13.2952 N.am    1  UNL1       -0.2639
      4 H          64.8396   89.4586   13.5377 H       1  UNL1        0.1567
      5 C          63.9629   87.5154   13.9264 C.ar    1  UNL1        0.1655
      6 N          63.4603   86.2724   13.2539 N.ar    1  UNL1       -0.2239
      7 C          63.5047   85.1544   14.2529 C.ar    1  UNL1        0.0913
      8 C          64.0348   85.7064   15.5430 C.ar    1  UNL1        0.0573
      9 S          64.3180   87.1655   15.3412 S.2     1  UNL1       -0.0508
     10 C          63.0916   83.7338   14.0054 C.ar    1  UNL1        0.0403
     11 C          62.4156   82.8277   14.9912 C.ar    1  UNL1        0.1021
     12 N          62.1882   81.5038   14.3236 N.ar    1  UNL1       -0.2269
     13 C          62.7235   81.5918   12.9252 C.ar    1  UNL1        0.1406
     14 N          62.7748   80.5950   11.8055 N.ar    1  UNL1       -0.3374
     15 C          63.3844   80.9764   10.4892 C.ar    1  UNL1        0.0735
     16 C          63.9427   82.3547   10.2924 C.ar    1  UNL1        0.0186
     17 C          63.8915   83.3515   11.4121 C.ar    1  UNL1        0.0046
     18 C          63.2819   82.9700   12.7285 C.ar    1  UNL1        0.0370
     19 H          62.4083   79.6904   11.9346 H       1  UNL1        0.1674
     20 C          63.1952   90.6835   11.6630 C.3     1  UNL1        0.1117
     21 C          66.1938   93.2563   11.2908 C.ar    1  UNL1        0.1054
     22 C          66.6735   93.3398   12.7096 C.ar    1  UNL1        0.0183
     23 C          65.9938   92.5378   13.7795 C.ar    1  UNL1        0.0010
     24 C          64.8343   91.6523   13.4307 C.ar    1  UNL1       -0.0037
     25 C          64.3546   91.5689   12.0118 C.ar    1  UNL1       -0.0118
     26 C          65.0344   92.3709   10.9419 C.ar    1  UNL1        0.0146
     27 C          67.5534   94.8603    9.1509 C.3     1  UNL1        0.1816
     28 S          66.8736   94.0583   10.2209 S.O2    1  UNL1        0.0104
     29 O          65.7384   95.0387   10.2345 O.2     1  UNL1       -0.1686
     30 O          68.0088   93.0779   10.2073 O.2     1  UNL1       -0.1686
@<TRIPOS>BOND
     1    27    28    1
     2    28    29    2
     3    28    30    2
     4    28    21    1
     5    21    22   ar
     6    22    23   ar
     7    23    24   ar
     8    24    25   ar
     9    25    20    1
    10    20     1    1
    11     1     2    2
    12     1     3   am
    13     3     5    1
    14     5     6   ar
    15     6     7   ar
    16     7    10    1
    17    10    11   ar
    18    11    12   ar
    19    12    13   ar
    20    13    14   ar
    21    14    15   ar
    22    15    16   ar
    23    16    17   ar
    24    17    18   ar
    25     7     8   ar
    26     8     9   ar
    27    25    26   ar
    28    26    21   ar
    29     9     5   ar
    30    18    10   ar
    31    18    13    1
    32     3     4    1
    33    14    19    1
@<TRIPOS>MOLECULE
*****
 30 33 0 0 0
SMALL
GASTEIGER

@<TRIPOS>ATOM
      1 C          62.6729   89.8846   11.7043 C.2     1  UNL1        0.2320
      2 O          62.2525   89.5138   13.0956 O.2     1  UNL1       -0.2744
      3 N          62.8091   88.8227   10.6538 N.am    1  UNL1       -0.2639
      4 H          63.0851   89.0661    9.7407 H       1  UNL1        0.1567
      5 C          62.5249   87.3899   10.9945 C.ar    1  UNL1        0.1655
      6 N          62.8667   86.7059   12.2850 N.ar    1  UNL1       -0.2239
      7 C          62.4021   85.2827   12.1927 C.ar    1  UNL1        0.0913
      8 C          61.7731   85.0870   10.8451 C.ar    1  UNL1        0.0573
      9 S          61.8491   86.3892   10.1046 S.2     1  UNL1       -0.0508
     10 C          62.5418   84.2385   13.2605 C.ar    1  UNL1        0.0403
     11 C          62.6283   84.4926   14.7363 C.ar    1  UNL1        0.1021
     12 N          62.7595   83.1680   15.4277 N.ar    1  UNL1       -0.2269
     13 C          62.7542   82.0953   14.3793 C.ar    1  UNL1        0.1406
     14 N          62.8544   80.6015   14.4713 N.ar    1  UNL1       -0.3374
     15 C          62.8201   79.7693   13.2238 C.ar    1  UNL1        0.0735
     16 C          62.6855   80.4309   11.8844 C.ar    1  UNL1        0.0186
     17 C          62.5853   81.9247   11.7924 C.ar    1  UNL1        0.0046
     18 C          62.6196   82.7569   13.0399 C.ar    1  UNL1        0.0370
     19 H          62.9427   80.1672   15.3505 H       1  UNL1        0.1674
     20 C          62.9571   91.3175   11.3636 C.3     1  UNL1        0.1117
     21 C          66.3566   93.3306   10.9877 C.ar    1  UNL1        0.1054
     22 C          66.9680   93.1095   12.3395 C.ar    1  UNL1        0.0183
     23 C          66.2424   92.2909   13.3660 C.ar    1  UNL1        0.0010
     24 C          64.9054   91.6936   13.0407 C.ar    1  UNL1       -0.0037
     25 C          64.2940   91.9148   11.6888 C.ar    1  UNL1       -0.0118
     26 C          65.0197   92.7334   10.6624 C.ar    1  UNL1        0.0146
     27 C          67.8076   94.9677    8.9348 C.3     1  UNL1        0.1816
     28 S          67.0821   94.1492    9.9613 S.O2    1  UNL1        0.0104
     29 O          66.5087   95.4017   10.5548 O.2     1  UNL1       -0.1686
     30 O          67.6555   92.8966    9.3677 O.2     1  UNL1       -0.1686
@<TRIPOS>BOND
     1    27    28    1
     2    28    29    2
     3    28    30    2
     4    28    21    1
     5    21    22   ar
     6    22    23   ar
     7    23    24   ar
     8    24    25   ar
     9    25    20    1
    10    20     1    1
    11     1     2    2
    12     1     3   am
    13     3     5    1
    14     5     6   ar
    15     6     7   ar
    16     7    10    1
    17    10    11   ar
    18    11    12   ar
    19    12    13   ar
    20    13    14   ar
    21    14    15   ar
    22    15    16   ar
    23    16    17   ar
    24    17    18   ar
    25     7     8   ar
    26     8     9   ar
    27    25    26   ar
    28    26    21   ar
    29     9     5   ar
    30    18    10   ar
    31    18    13    1
    32     3     4    1
    33    14    19    1
@<TRIPOS>MOLECULE
*****
 30 33 0 0 0
SMALL
GASTEIGER

@<TRIPOS>ATOM
      1 C          63.5506   88.9903   13.8335 C.2     1  UNL1        0.2320
      2 O          64.1363   87.7088   14.3480 O.2     1  UNL1       -0.2744
      3 N          62.6955   88.9825   12.6011 N.am    1  UNL1       -0.2639
      4 H          62.3111   89.8235   12.2634 H       1  UNL1        0.1567
      5 C          62.4262   87.6933   11.8833 C.ar    1  UNL1        0.1655
      6 N          63.0968   86.3784   12.1507 N.ar    1  UNL1       -0.2239
      7 C          62.5241   85.3651   11.2046 C.ar    1  UNL1        0.0913
      8 C          61.4996   86.0536   10.3524 C.ar    1  UNL1        0.0573
      9 S          61.4391   87.4925   10.7718 S.2     1  UNL1       -0.0508
     10 C          62.9084   83.9174   11.1247 C.ar    1  UNL1        0.0403
     11 C          63.6186   83.2555    9.9812 C.ar    1  UNL1        0.1021
     12 N          63.7991   81.8064   10.3241 N.ar    1  UNL1       -0.2269
     13 C          63.2005   81.5727   11.6795 C.ar    1  UNL1        0.1406
     14 N          63.0856   80.3405   12.5271 N.ar    1  UNL1       -0.3374
     15 C          62.4202   80.4129   13.8694 C.ar    1  UNL1        0.0735
     16 C          61.8698   81.7176   14.3642 C.ar    1  UNL1        0.0186
     17 C          61.9847   82.9498   13.5167 C.ar    1  UNL1        0.0046
     18 C          62.6501   82.8774   12.1743 C.ar    1  UNL1        0.0370
     19 H          63.4469   79.4842   12.2023 H       1  UNL1        0.1674
     20 C          63.8199   90.2795   14.5514 C.3     1  UNL1        0.1117
     21 C          67.0121   92.6247   14.3066 C.ar    1  UNL1        0.1054
     22 C          66.8559   93.1722   12.9189 C.ar    1  UNL1        0.0183
     23 C          65.6877   92.7555   12.0753 C.ar    1  UNL1        0.0010
     24 C          64.6756   91.7912   12.6195 C.ar    1  UNL1       -0.0037
     25 C          64.8319   91.2437   14.0073 C.ar    1  UNL1       -0.0118
     26 C          66.0001   91.6605   14.8508 C.ar    1  UNL1        0.0146
     27 C          69.3485   93.4581   15.9938 C.3     1  UNL1        0.1816
     28 S          68.1803   93.0414   15.1502 S.O2    1  UNL1        0.0104
     29 O          67.2395   93.5386   16.2074 O.2     1  UNL1       -0.1686
     30 O          69.1211   92.5442   14.0930 O.2     1  UNL1       -0.1686
@<TRIPOS>BOND
     1    27    28    1
     2    28    29    2
     3    28    30    2
     4    28    21    1
     5    21    22   ar
     6    22    23   ar
     7    23    24   ar
     8    24    25   ar
     9    25    20    1
    10    20     1    1
    11     1     2    2
    12     1     3   am
    13     3     5    1
    14     5     6   ar
    15     6     7   ar
    16     7    10    1
    17    10    11   ar
    18    11    12   ar
    19    12    13   ar
    20    13    14   ar
    21    14    15   ar
    22    15    16   ar
    23    16    17   ar
    24    17    18   ar
    25     7     8   ar
    26     8     9   ar
    27    25    26   ar
    28    26    21   ar
    29     9     5   ar
    30    18    10   ar
    31    18    13    1
    32     3     4    1
    33    14    19    1
@<TRIPOS>MOLECULE
*****
 30 33 0 0 0
SMALL
GASTEIGER

@<TRIPOS>ATOM
      1 C          62.0504   87.0581   10.6604 C.2     1  UNL1        0.2320
      2 O          62.3789   87.4245    9.2434 O.2     1  UNL1       -0.2744
      3 N          62.2683   88.0526   11.7619 N.am    1  UNL1       -0.2639
      4 H          62.0527   87.8121   12.6920 H       1  UNL1        0.1567
      5 C          62.8147   89.4134   11.4466 C.ar    1  UNL1        0.1655
      6 N          63.8848   90.1332   12.2127 N.ar    1  UNL1       -0.2239
      7 C          64.1185   91.4580   11.5494 C.ar    1  UNL1        0.0913
      8 C          63.1928   91.5572   10.3732 C.ar    1  UNL1        0.0573
      9 S          62.3871   90.2935   10.3097 S.2     1  UNL1       -0.0508
     10 C          65.1047   92.5007   11.9855 C.ar    1  UNL1        0.0403
     11 C          65.5932   93.6529   11.1586 C.ar    1  UNL1        0.1021
     12 N          66.5659   94.4385   11.9873 N.ar    1  UNL1       -0.2269
     13 C          66.6785   93.7719   13.3263 C.ar    1  UNL1        0.1406
     14 N          67.4867   94.1007   14.5464 N.ar    1  UNL1       -0.3374
     15 C          67.3918   93.2318   15.7654 C.ar    1  UNL1        0.0735
     16 C          66.4887   92.0342   15.7643 C.ar    1  UNL1        0.0186
     17 C          65.6805   91.7054   14.5442 C.ar    1  UNL1        0.0046
     18 C          65.7754   92.5742   13.3252 C.ar    1  UNL1        0.0370
     19 H          68.0795   94.8867   14.5471 H       1  UNL1        0.1674
     20 C          61.5039   85.6973   10.9758 C.3     1  UNL1        0.1117
     21 C          63.2047   82.2772   12.0532 C.ar    1  UNL1        0.1054
     22 C          64.2344   82.1203   10.9738 C.ar    1  UNL1        0.0183
     23 C          64.3540   83.1557    9.8951 C.ar    1  UNL1        0.0010
     24 C          63.4438   84.3481    9.8957 C.ar    1  UNL1       -0.0037
     25 C          62.4140   84.5050   10.9752 C.ar    1  UNL1       -0.0118
     26 C          62.2945   83.4695   12.0539 C.ar    1  UNL1        0.0146
     27 C          62.9655   80.2065   14.2107 C.3     1  UNL1        0.1816
     28 S          63.0851   81.2419   13.1319 S.O2    1  UNL1        0.0104
     29 O          63.4919   82.2607   14.1549 O.2     1  UNL1       -0.1686
     30 O          62.6783   80.2230   12.1089 O.2     1  UNL1       -0.1686
@<TRIPOS>BOND
     1    27    28    1
     2    28    29    2
     3    28    30    2
     4    28    21    1
     5    21    22   ar
     6    22    23   ar
     7    23    24   ar
     8    24    25   ar
     9    25    20    1
    10    20     1    1
    11     1     2    2
    12     1     3   am
    13     3     5    1
    14     5     6   ar
    15     6     7   ar
    16     7    10    1
    17    10    11   ar
    18    11    12   ar
    19    12    13   ar
    20    13    14   ar
    21    14    15   ar
    22    15    16   ar
    23    16    17   ar
    24    17    18   ar
    25     7     8   ar
    26     8     9   ar
    27    25    26   ar
    28    26    21   ar
    29     9     5   ar
    30    18    10   ar
    31    18    13    1
    32     3     4    1
    33    14    19    1
@<TRIPOS>MOLECULE
*****
 30 33 0 0 0
SMALL
GASTEIGER

@<TRIPOS>ATOM
      1 C          62.0495   87.5049   10.5425 C.2     1  UNL1        0.2320
      2 O          61.7689   88.7310    9.7251 O.2     1  UNL1       -0.2744
      3 N          62.7836   87.6238   11.8451 N.am    1  UNL1       -0.2639
      4 H          62.9678   86.8191   12.3816 H       1  UNL1        0.1567
      5 C          63.2372   88.9686   12.3304 C.ar    1  UNL1        0.1655
      6 N          63.9407   89.2475   13.6255 N.ar    1  UNL1       -0.2239
      7 C          64.2052   90.7220   13.7014 C.ar    1  UNL1        0.0913
      8 C          63.6652   91.3546   12.4531 C.ar    1  UNL1        0.0573
      9 S          63.0669   90.2710   11.6058 S.2     1  UNL1       -0.0508
     10 C          64.8895   91.4382   14.8277 C.ar    1  UNL1        0.0403
     11 C          64.2705   91.8076   16.1431 C.ar    1  UNL1        0.1021
     12 N          65.3114   92.5085   16.9647 N.ar    1  UNL1       -0.2269
     13 C          66.5739   92.5723   16.1571 C.ar    1  UNL1        0.1406
     14 N          67.9271   93.1473   16.4537 N.ar    1  UNL1       -0.3374
     15 C          69.0196   93.0608   15.4296 C.ar    1  UNL1        0.0735
     16 C          68.7588   92.3993   14.1088 C.ar    1  UNL1        0.0186
     17 C          67.4056   91.8243   13.8122 C.ar    1  UNL1        0.0046
     18 C          66.3131   91.9108   14.8364 C.ar    1  UNL1        0.0370
     19 H          68.0983   93.5814   17.3206 H       1  UNL1        0.1674
     20 C          61.5959   86.1600   10.0572 C.3     1  UNL1        0.1117
     21 C          62.9522   82.9361   11.9326 C.ar    1  UNL1        0.1054
     22 C          64.0313   82.4927   10.9899 C.ar    1  UNL1        0.0183
     23 C          64.2986   83.2716    9.7362 C.ar    1  UNL1        0.0010
     24 C          63.4868   84.4942    9.4253 C.ar    1  UNL1       -0.0037
     25 C          62.4077   84.9376   10.3681 C.ar    1  UNL1       -0.0118
     26 C          62.1404   84.1585   11.6218 C.ar    1  UNL1        0.0146
     27 C          62.4174   81.3782   14.4400 C.3     1  UNL1        0.1816
     28 S          62.6848   82.1572   13.1863 S.O2    1  UNL1        0.0104
     29 O          62.3816   83.4331   13.9144 O.2     1  UNL1       -0.1686
     30 O          62.9880   80.8813   12.4582 O.2     1  UNL1       -0.1686
@<TRIPOS>BOND
     1    27    28    1
     2    28    29    2
     3    28    30    2
     4    28    21    1
     5    21    22   ar
     6    22    23   ar
     7    23    24   ar
     8    24    25   ar
     9    25    20    1
    10    20     1    1
    11     1     2    2
    12     1     3   am
    13     3     5    1
    14     5     6   ar
    15     6     7   ar
    16     7    10    1
    17    10    11   ar
    18    11    12   ar
    19    12    13   ar
    20    13    14   ar
    21    14    15   ar
    22    15    16   ar
    23    16    17   ar
    24    17    18   ar
    25     7     8   ar
    26     8     9   ar
    27    25    26   ar
    28    26    21   ar
    29     9     5   ar
    30    18    10   ar
    31    18    13    1
    32     3     4    1
    33    14    19    1
