@<TRIPOS>MOLECULE
*****
 44 49 0 0 0
SMALL
GASTEIGER

@<TRIPOS>ATOM
      1 C          59.8135   89.7946    6.4725 C.2     1  UNL1        0.0332
      2 C          58.3428   90.0055    6.2668 C.2     1  UNL1        0.0101
      3 C          57.8623   90.9957    5.2476 C.2     1  UNL1        0.0255
      4 C          56.3915   91.2065    5.0419 C.3     1  UNL1        0.0351
      5 C          58.8528   91.7749    4.4340 C.2     1  UNL1        0.2278
      6 N          58.6783   92.8116    3.3641 N.2     1  UNL1       -0.0345
      7 C          60.0413   93.2414    2.9086 C.2     1  UNL1        0.3649
      8 N          61.0582   92.4703    3.6970 N.2     1  UNL1       -0.0380
      9 C          60.3236   91.5639    4.6398 C.2     1  UNL1        0.2184
     10 C          60.8039   90.5738    5.6590 C.3     1  UNL1        0.1186
     11 C          60.3359   94.2630    1.8505 C.3     1  UNL1        0.2250
     12 C          60.7312   93.8226    0.4721 C.2     1  UNL1        0.0436
     13 C          61.0257   94.8442   -0.5860 C.2     1  UNL1        0.0288
     14 C          60.9249   96.3062   -0.2658 C.2     1  UNL1        0.0896
     15 N          60.5296   96.7466    1.1125 N.am    1  UNL1       -0.1770
     16 C          60.2351   95.7249    2.1706 C.2     1  UNL1        0.2627
     17 O          59.8398   96.1653    3.5490 O.2     1  UNL1       -0.2719
     18 N          60.8320   92.3607    0.1519 N.pl3   1  UNL1       -0.3348
     19 H          61.6622   91.8697    0.3491 H       1  UNL1        0.1466
     20 C          59.6679   91.6468   -0.4688 C.3     1  UNL1        0.0933
     21 C          58.3873   92.3839   -0.7274 C.3     1  UNL1        0.0694
     22 C          58.1255   92.9814   -2.0781 C.ar    1  UNL1        0.0890
     23 N          59.1270   93.1326   -3.1844 N.ar    1  UNL1       -0.2274
     24 C          58.4366   93.7772   -4.3497 C.ar    1  UNL1        0.1789
     25 N          57.0085   94.0244   -3.9636 N.ar    1  UNL1       -0.2986
     26 C          55.9572   94.6531   -4.8293 C.3     1  UNL1        0.1329
     27 C          56.8161   93.5326   -2.5596 C.ar    1  UNL1        0.1338
     28 CL         55.5388   93.5830   -1.7749 Cl      1  UNL1       -0.0619
     29 C          61.2546   86.8240    9.5301 C.3     1  UNL1        0.0610
     30 C          61.4557   88.2928    9.7586 C.3     1  UNL1        0.0374
     31 C          60.9753   89.2829    8.7393 C.3     1  UNL1        0.0919
     32 N          60.2939   88.8044    7.4918 N.pl3   1  UNL1       -0.3103
     33 C          60.0928   87.3356    7.2633 C.3     1  UNL1        0.0919
     34 C          60.5732   86.3454    8.2825 C.3     1  UNL1        0.0374
     35 C          63.1761   82.8632   13.6070 C.2     1  UNL1        0.4051
     36 O          63.1913   83.2311   15.0610 O.2     1  UNL1       -0.2262
     37 N          62.6957   83.8534   12.5877 N.am    1  UNL1       -0.2432
     38 C          62.6806   83.4855   11.1337 C.3     1  UNL1        0.1141
     39 C          62.2002   84.4757   10.1144 C.3     1  UNL1        0.0940
     40 N          61.7350   85.8338   10.5493 N.3     1  UNL1       -0.2710
     41 C          61.7502   86.2017   12.0034 C.3     1  UNL1        0.0940
     42 C          62.2305   85.2115   13.0226 C.3     1  UNL1        0.1141
     43 C          62.6639   80.3708   13.0821 C.3     1  UNL1        0.2573
     44 O          63.6413   81.5051   13.1720 O.3     1  UNL1       -0.4304
@<TRIPOS>BOND
     1    43    44    1
     2    44    35    1
     3    35    36    2
     4    35    37   am
     5    37    38    1
     6    38    39    1
     7    39    40    1
     8    40    29    1
     9    29    30    1
    10    30    31    1
    11    31    32    1
    12    32     1    1
    13     1     2    2
    14     2     3    1
    15     3     4    1
    16     3     5    2
    17     5     6    1
    18     6     7    2
    19     7    11    1
    20    11    12    1
    21    12    18    1
    22    18    20    1
    23    20    21    1
    24    21    22    1
    25    22    23   ar
    26    23    24   ar
    27    24    25   ar
    28    25    26    1
    29    25    27   ar
    30    27    28    1
    31    12    13    2
    32    13    14    1
    33    14    15    2
    34    15    16    1
    35    16    17    2
    36     7     8    1
    37     8     9    2
    38     9    10    1
    39    32    33    1
    40    33    34    1
    41    40    41    1
    42    41    42    1
    43    42    37    1
    44    34    29    1
    45    10     1    1
    46     9     5    1
    47    16    11    1
    48    27    22   ar
    49    18    19    1
@<TRIPOS>MOLECULE
*****
 44 49 0 0 0
SMALL
GASTEIGER

@<TRIPOS>ATOM
      1 C          59.8222   90.1009    6.3977 C.2     1  UNL1        0.0332
      2 C          58.3412   90.2850    6.2476 C.2     1  UNL1        0.0101
      3 C          57.7986   91.1112    5.1193 C.2     1  UNL1        0.0255
      4 C          56.3175   91.2953    4.9693 C.3     1  UNL1        0.0351
      5 C          58.7371   91.7533    4.1411 C.2     1  UNL1        0.2278
      6 N          58.4968   92.6164    2.9381 N.2     1  UNL1       -0.0345
      7 C          59.8294   92.9657    2.3447 C.2     1  UNL1        0.3649
      8 N          60.8933   92.3185    3.1809 N.2     1  UNL1       -0.0380
      9 C          60.2182   91.5692    4.2912 C.2     1  UNL1        0.2184
     10 C          60.7608   90.7430    5.4195 C.3     1  UNL1        0.1186
     11 C          60.0581   93.8135    1.1285 C.3     1  UNL1        0.2250
     12 C          59.0706   93.7874   -0.0004 C.2     1  UNL1        0.0436
     13 C          59.2994   94.6351   -1.2165 C.2     1  UNL1        0.0288
     14 C          60.5154   95.5090   -1.3039 C.2     1  UNL1        0.0896
     15 N          61.5028   95.5350   -0.1750 N.am    1  UNL1       -0.1770
     16 C          61.2741   94.6873    1.0411 C.2     1  UNL1        0.2627
     17 O          62.2615   94.7134    2.1700 O.2     1  UNL1       -0.2719
     18 N          57.8546   92.9136    0.0869 N.pl3   1  UNL1       -0.3348
     19 H          57.3753   92.8210    0.9419 H       1  UNL1        0.1466
     20 C          57.3686   92.1809   -1.1284 C.3     1  UNL1        0.0933
     21 C          56.0906   92.5974   -1.7941 C.3     1  UNL1        0.0694
     22 C          55.9101   94.0148   -2.2507 C.ar    1  UNL1        0.0890
     23 N          55.7474   95.2130   -1.3631 N.ar    1  UNL1       -0.2274
     24 C          55.5973   96.4215   -2.2389 C.ar    1  UNL1        0.1789
     25 N          55.6672   95.9703   -3.6676 N.ar    1  UNL1       -0.2986
     26 C          55.5623   96.8516   -4.8768 C.3     1  UNL1        0.1329
     27 C          55.8605   94.4827   -3.6750 C.ar    1  UNL1        0.1338
     28 CL         55.9829   93.6156   -4.8928 Cl      1  UNL1       -0.0619
     29 C          61.4500   87.6222    9.7824 C.3     1  UNL1        0.0610
     30 C          61.6348   89.1107    9.7866 C.3     1  UNL1        0.0374
     31 C          61.0922   89.9370    8.6583 C.3     1  UNL1        0.0919
     32 N          60.3649   89.2747    7.5260 N.pl3   1  UNL1       -0.3103
     33 C          60.1801   87.7861    7.5218 C.3     1  UNL1        0.0919
     34 C          60.7227   86.9599    8.6500 C.3     1  UNL1        0.0374
     35 C          63.6204   84.3171   14.2953 C.2     1  UNL1        0.4051
     36 O          63.4168   82.8311   14.3020 O.2     1  UNL1       -0.2262
     37 N          63.0778   85.1434   13.1671 N.am    1  UNL1       -0.2432
     38 C          63.2813   86.6295   13.1604 C.3     1  UNL1        0.1141
     39 C          62.7388   87.4558   12.0322 C.3     1  UNL1        0.0940
     40 N          61.9926   86.7959   10.9106 N.3     1  UNL1       -0.2710
     41 C          61.7891   85.3098   10.9173 C.3     1  UNL1        0.0940
     42 C          62.3317   84.4836   12.0456 C.3     1  UNL1        0.1141
     43 C          63.6171   85.7327   16.4739 C.3     1  UNL1        0.2573
     44 O          64.3665   84.9770   15.4169 O.3     1  UNL1       -0.4304
@<TRIPOS>BOND
     1    43    44    1
     2    44    35    1
     3    35    36    2
     4    35    37   am
     5    37    38    1
     6    38    39    1
     7    39    40    1
     8    40    29    1
     9    29    30    1
    10    30    31    1
    11    31    32    1
    12    32     1    1
    13     1     2    2
    14     2     3    1
    15     3     4    1
    16     3     5    2
    17     5     6    1
    18     6     7    2
    19     7    11    1
    20    11    12    1
    21    12    18    1
    22    18    20    1
    23    20    21    1
    24    21    22    1
    25    22    23   ar
    26    23    24   ar
    27    24    25   ar
    28    25    26    1
    29    25    27   ar
    30    27    28    1
    31    12    13    2
    32    13    14    1
    33    14    15    2
    34    15    16    1
    35    16    17    2
    36     7     8    1
    37     8     9    2
    38     9    10    1
    39    32    33    1
    40    33    34    1
    41    40    41    1
    42    41    42    1
    43    42    37    1
    44    34    29    1
    45    10     1    1
    46     9     5    1
    47    16    11    1
    48    27    22   ar
    49    18    19    1
@<TRIPOS>MOLECULE
*****
 44 49 0 0 0
SMALL
GASTEIGER

@<TRIPOS>ATOM
      1 C          59.8234   89.7444    6.4532 C.2     1  UNL1        0.0332
      2 C          58.3606   90.0539    6.3344 C.2     1  UNL1        0.0101
      3 C          57.8778   91.0003    5.2755 C.2     1  UNL1        0.0255
      4 C          56.4148   91.3098    5.1568 C.3     1  UNL1        0.0351
      5 C          58.8579   91.6372    4.3355 C.2     1  UNL1        0.2278
      6 N          58.6789   92.6022    3.2012 N.2     1  UNL1       -0.0345
      7 C          60.0312   92.8891    2.6190 C.2     1  UNL1        0.3649
      8 N          61.0459   92.1014    3.3934 N.2     1  UNL1       -0.0380
      9 C          60.3208   91.3277    4.4543 C.2     1  UNL1        0.2184
     10 C          60.8036   90.3813    5.5132 C.3     1  UNL1        0.1186
     11 C          60.3183   93.8032    1.4649 C.3     1  UNL1        0.2250
     12 C          59.3505   93.8958    0.3226 C.2     1  UNL1        0.0436
     13 C          59.6378   94.8100   -0.8315 C.2     1  UNL1        0.0288
     14 C          60.8927   95.6315   -0.8433 C.2     1  UNL1        0.0896
     15 N          61.8605   95.5389    0.2990 N.am    1  UNL1       -0.1770
     16 C          61.5733   94.6248    1.4530 C.2     1  UNL1        0.2627
     17 O          62.5410   94.5322    2.5953 O.2     1  UNL1       -0.2719
     18 N          58.0956   93.0743    0.3343 N.pl3   1  UNL1       -0.3348
     19 H          57.6392   92.8849    1.1859 H       1  UNL1        0.1466
     20 C          57.5358   92.5415   -0.9513 C.3     1  UNL1        0.0933
     21 C          56.4169   93.2658   -1.6394 C.3     1  UNL1        0.0694
     22 C          56.2906   93.2050   -3.1328 C.ar    1  UNL1        0.0890
     23 N          56.4478   94.3585   -4.0786 N.ar    1  UNL1       -0.2274
     24 C          56.2391   93.8464   -5.4730 C.ar    1  UNL1        0.1789
     25 N          55.9530   92.3764   -5.3889 N.ar    1  UNL1       -0.2986
     26 C          55.6826   91.4631   -6.5477 C.3     1  UNL1        0.1329
     27 C          55.9848   91.9799   -3.9426 C.ar    1  UNL1        0.1338
     28 CL         55.7517   90.6006   -3.4011 Cl      1  UNL1       -0.0619
     29 C          61.2720   86.9052    9.6299 C.3     1  UNL1        0.0610
     30 C          60.6252   86.3721    8.3860 C.3     1  UNL1        0.0374
     31 C          60.1423   87.3185    7.3271 C.3     1  UNL1        0.0919
     32 N          60.3063   88.7979    7.5121 N.pl3   1  UNL1       -0.3103
     33 C          60.9531   89.3311    8.7560 C.3     1  UNL1        0.0919
     34 C          61.4360   88.3847    9.8149 C.3     1  UNL1        0.0374
     35 C          63.2035   83.1199   13.8656 C.2     1  UNL1        0.4051
     36 O          63.2067   83.5430   15.3046 O.2     1  UNL1       -0.2262
     37 N          62.7206   84.0662   12.8066 N.am    1  UNL1       -0.2432
     38 C          62.7174   83.6431   11.3676 C.3     1  UNL1        0.1141
     39 C          62.2345   84.5895   10.3086 C.3     1  UNL1        0.0940
     40 N          61.7549   85.9589   10.6888 N.3     1  UNL1       -0.2710
     41 C          61.7581   86.3820   12.1279 C.3     1  UNL1        0.0940
     42 C          62.2410   85.4356   13.1868 C.3     1  UNL1        0.1141
     43 C          62.7054   80.6189   13.3687 C.3     1  UNL1        0.2573
     44 O          63.6831   81.7504   13.4854 O.3     1  UNL1       -0.4304
@<TRIPOS>BOND
     1    43    44    1
     2    44    35    1
     3    35    36    2
     4    35    37   am
     5    37    38    1
     6    38    39    1
     7    39    40    1
     8    40    29    1
     9    29    30    1
    10    30    31    1
    11    31    32    1
    12    32     1    1
    13     1     2    2
    14     2     3    1
    15     3     4    1
    16     3     5    2
    17     5     6    1
    18     6     7    2
    19     7    11    1
    20    11    12    1
    21    12    18    1
    22    18    20    1
    23    20    21    1
    24    21    22    1
    25    22    23   ar
    26    23    24   ar
    27    24    25   ar
    28    25    26    1
    29    25    27   ar
    30    27    28    1
    31    12    13    2
    32    13    14    1
    33    14    15    2
    34    15    16    1
    35    16    17    2
    36     7     8    1
    37     8     9    2
    38     9    10    1
    39    32    33    1
    40    33    34    1
    41    40    41    1
    42    41    42    1
    43    42    37    1
    44    34    29    1
    45    10     1    1
    46     9     5    1
    47    16    11    1
    48    27    22   ar
    49    18    19    1
@<TRIPOS>MOLECULE
*****
 44 49 0 0 0
SMALL
GASTEIGER

@<TRIPOS>ATOM
      1 C          60.2546   90.0125    6.7952 C.2     1  UNL1        0.0332
      2 C          59.4133   88.8033    7.0776 C.2     1  UNL1        0.0101
      3 C          59.6361   88.0107    8.3315 C.2     1  UNL1        0.0255
      4 C          58.7946   86.8014    8.6139 C.3     1  UNL1        0.0351
      5 C          60.7003   88.4275    9.3030 C.2     1  UNL1        0.2278
      6 N          61.1470   87.8474   10.6122 N.2     1  UNL1       -0.0345
      7 C          62.2644   88.6982   11.1389 C.2     1  UNL1        0.3649
      8 N          62.5084   89.8041   10.1552 N.2     1  UNL1       -0.0380
      9 C          61.5417   89.6367    9.0205 C.2     1  UNL1        0.2184
     10 C          61.3189   90.4292    7.7666 C.3     1  UNL1        0.1186
     11 C          63.0075   88.4813   12.4237 C.3     1  UNL1        0.2250
     12 C          63.5648   89.6539   13.1750 C.2     1  UNL1        0.0436
     13 C          64.3079   89.4369   14.4598 C.2     1  UNL1        0.0288
     14 C          64.4937   88.0473   14.9934 C.2     1  UNL1        0.0896
     15 N          63.9364   86.8747   14.2421 N.am    1  UNL1       -0.1770
     16 C          63.1933   87.0918   12.9573 C.2     1  UNL1        0.2627
     17 O          62.6360   85.9192   12.2060 O.2     1  UNL1       -0.2719
     18 N          63.3791   91.0434   12.6415 N.pl3   1  UNL1       -0.3348
     19 H          62.6536   91.6111   12.9888 H       1  UNL1        0.1466
     20 C          64.2987   91.5681   11.5789 C.3     1  UNL1        0.0933
     21 C          65.5120   92.3623   11.9624 C.3     1  UNL1        0.0694
     22 C          66.3972   92.9402   10.8983 C.ar    1  UNL1        0.0890
     23 N          67.5377   92.2379   10.2230 N.ar    1  UNL1       -0.2274
     24 C          68.1428   93.1854    9.2299 C.ar    1  UNL1        0.1789
     25 N          67.3764   94.4733    9.2915 N.ar    1  UNL1       -0.2986
     26 C          67.6420   95.6978    8.4669 C.3     1  UNL1        0.1329
     27 C          66.2975   94.3218   10.3227 C.ar    1  UNL1        0.1338
     28 CL         65.2950   95.3680   10.7101 Cl      1  UNL1       -0.0619
     29 C          59.5864   92.3901    3.0335 C.3     1  UNL1        0.0610
     30 C          58.4317   92.0783    3.9386 C.3     1  UNL1        0.0374
     31 C          58.6545   91.2857    5.1926 C.3     1  UNL1        0.0919
     32 N          60.0319   90.8050    5.5412 N.pl3   1  UNL1       -0.3103
     33 C          61.1866   91.1169    4.6361 C.3     1  UNL1        0.0919
     34 C          60.9639   91.9094    3.3822 C.3     1  UNL1        0.0374
     35 C          58.6956   95.5603   -1.9822 C.2     1  UNL1        0.4051
     36 O          59.4287   96.8517   -2.1933 O.2     1  UNL1       -0.2262
     37 N          58.9183   94.7677   -0.7282 N.am    1  UNL1       -0.2432
     38 C          58.1852   93.4763   -0.5171 C.3     1  UNL1        0.1141
     39 C          58.4079   92.6837    0.7368 C.3     1  UNL1        0.0940
     40 N          59.3637   93.1826    1.7796 N.3     1  UNL1       -0.2710
     41 C          60.0969   94.4741    1.5684 C.3     1  UNL1        0.0940
     42 C          59.8741   95.2667    0.3145 C.3     1  UNL1        0.1141
     43 C          56.5401   95.8816   -3.3966 C.3     1  UNL1        0.2573
     44 O          57.7397   95.0614   -3.0249 O.3     1  UNL1       -0.4304
@<TRIPOS>BOND
     1    43    44    1
     2    44    35    1
     3    35    36    2
     4    35    37   am
     5    37    38    1
     6    38    39    1
     7    39    40    1
     8    40    29    1
     9    29    30    1
    10    30    31    1
    11    31    32    1
    12    32     1    1
    13     1     2    2
    14     2     3    1
    15     3     4    1
    16     3     5    2
    17     5     6    1
    18     6     7    2
    19     7    11    1
    20    11    12    1
    21    12    18    1
    22    18    20    1
    23    20    21    1
    24    21    22    1
    25    22    23   ar
    26    23    24   ar
    27    24    25   ar
    28    25    26    1
    29    25    27   ar
    30    27    28    1
    31    12    13    2
    32    13    14    1
    33    14    15    2
    34    15    16    1
    35    16    17    2
    36     7     8    1
    37     8     9    2
    38     9    10    1
    39    32    33    1
    40    33    34    1
    41    40    41    1
    42    41    42    1
    43    42    37    1
    44    34    29    1
    45    10     1    1
    46     9     5    1
    47    16    11    1
    48    27    22   ar
    49    18    19    1
@<TRIPOS>MOLECULE
*****
 44 49 0 0 0
SMALL
GASTEIGER

@<TRIPOS>ATOM
      1 C          60.2165   89.9326    6.8044 C.2     1  UNL1        0.0332
      2 C          59.3456   88.7417    7.0745 C.2     1  UNL1        0.0101
      3 C          59.5535   87.9265    8.3164 C.2     1  UNL1        0.0255
      4 C          58.6825   86.7355    8.5864 C.3     1  UNL1        0.0351
      5 C          60.6325   88.3025    9.2883 C.2     1  UNL1        0.2278
      6 N          61.0699   87.6933   10.5873 N.2     1  UNL1       -0.0345
      7 C          62.2113   88.5078   11.1201 C.2     1  UNL1        0.3649
      8 N          62.4792   89.6204   10.1504 N.2     1  UNL1       -0.0380
      9 C          61.5034   89.4935    9.0182 C.2     1  UNL1        0.2184
     10 C          61.2954   90.3086    7.7763 C.3     1  UNL1        0.1186
     11 C          62.9543   88.2543   12.3982 C.3     1  UNL1        0.2250
     12 C          63.5132   89.4048   13.1817 C.2     1  UNL1        0.0436
     13 C          64.2562   89.1512   14.4599 C.2     1  UNL1        0.0288
     14 C          64.4404   87.7471   14.9545 C.2     1  UNL1        0.0896
     15 N          63.8815   86.5966   14.1710 N.am    1  UNL1       -0.1770
     16 C          63.1385   86.8502   12.8928 C.2     1  UNL1        0.2627
     17 O          62.5796   85.6997   12.1093 O.2     1  UNL1       -0.2719
     18 N          63.3291   90.8089   12.6872 N.pl3   1  UNL1       -0.3348
     19 H          62.4768   91.2770   12.8407 H       1  UNL1        0.1466
     20 C          64.4436   91.4997   11.9587 C.3     1  UNL1        0.0933
     21 C          65.1507   92.6591   12.5957 C.3     1  UNL1        0.0694
     22 C          66.4497   92.4426   13.3138 C.ar    1  UNL1        0.0890
     23 N          67.7946   92.2737   12.6715 N.ar    1  UNL1       -0.2274
     24 C          68.8080   92.0838   13.7610 C.ar    1  UNL1        0.1789
     25 N          68.0894   92.1353   15.0766 N.ar    1  UNL1       -0.2986
     26 C          68.7179   91.9904   16.4309 C.3     1  UNL1        0.1329
     27 C          66.6318   92.3571   14.8003 C.ar    1  UNL1        0.1338
     28 CL         65.5470   92.4730   15.8296 Cl      1  UNL1       -0.0619
     29 C          59.5927   92.3780    3.0787 C.3     1  UNL1        0.0610
     30 C          58.4169   91.9837    3.9225 C.3     1  UNL1        0.0374
     31 C          58.6249   91.1685    5.1644 C.3     1  UNL1        0.0919
     32 N          60.0085   90.7478    5.5625 N.pl3   1  UNL1       -0.3103
     33 C          61.1843   91.1422    4.7187 C.3     1  UNL1        0.0919
     34 C          60.9764   91.9573    3.4768 C.3     1  UNL1        0.0374
     35 C          58.7612   95.6386   -1.8890 C.2     1  UNL1        0.4051
     36 O          59.6021   96.8557   -2.1367 O.2     1  UNL1       -0.2262
     37 N          58.9691   94.8234   -0.6470 N.am    1  UNL1       -0.2432
     38 C          58.1282   93.6063   -0.3993 C.3     1  UNL1        0.1141
     39 C          58.3360   92.7911    0.8426 C.3     1  UNL1        0.0940
     40 N          59.3848   93.1932    1.8368 N.3     1  UNL1       -0.2710
     41 C          60.2257   94.4103    1.5890 C.3     1  UNL1        0.0940
     42 C          60.0179   95.2255    0.3471 C.3     1  UNL1        0.1141
     43 C          58.1132   94.8019   -4.2617 C.3     1  UNL1        0.2573
     44 O          57.7124   95.2366   -2.8831 O.3     1  UNL1       -0.4304
@<TRIPOS>BOND
     1    43    44    1
     2    44    35    1
     3    35    36    2
     4    35    37   am
     5    37    38    1
     6    38    39    1
     7    39    40    1
     8    40    29    1
     9    29    30    1
    10    30    31    1
    11    31    32    1
    12    32     1    1
    13     1     2    2
    14     2     3    1
    15     3     4    1
    16     3     5    2
    17     5     6    1
    18     6     7    2
    19     7    11    1
    20    11    12    1
    21    12    18    1
    22    18    20    1
    23    20    21    1
    24    21    22    1
    25    22    23   ar
    26    23    24   ar
    27    24    25   ar
    28    25    26    1
    29    25    27   ar
    30    27    28    1
    31    12    13    2
    32    13    14    1
    33    14    15    2
    34    15    16    1
    35    16    17    2
    36     7     8    1
    37     8     9    2
    38     9    10    1
    39    32    33    1
    40    33    34    1
    41    40    41    1
    42    41    42    1
    43    42    37    1
    44    34    29    1
    45    10     1    1
    46     9     5    1
    47    16    11    1
    48    27    22   ar
    49    18    19    1
@<TRIPOS>MOLECULE
*****
 44 49 0 0 0
SMALL
GASTEIGER

@<TRIPOS>ATOM
      1 C          60.2927   89.8531    6.8265 C.2     1  UNL1        0.0332
      2 C          59.3466   88.7194    7.0897 C.2     1  UNL1        0.0101
      3 C          59.5122   87.8739    8.3177 C.2     1  UNL1        0.0255
      4 C          58.5659   86.7402    8.5808 C.3     1  UNL1        0.0351
      5 C          60.6240   88.1623    9.2823 C.2     1  UNL1        0.2278
      6 N          61.0331   87.5060   10.5676 N.2     1  UNL1       -0.0345
      7 C          62.2321   88.2342   11.0987 C.2     1  UNL1        0.3649
      8 N          62.5641   89.3405   10.1417 N.2     1  UNL1       -0.0380
      9 C          61.5702   89.2960    9.0191 C.2     1  UNL1        0.2184
     10 C          61.4046   90.1414    7.7911 C.3     1  UNL1        0.1186
     11 C          62.9697   87.9126   12.3647 C.3     1  UNL1        0.2250
     12 C          63.5864   89.0147   13.1740 C.2     1  UNL1        0.0436
     13 C          64.3240   88.6930   14.4399 C.2     1  UNL1        0.0288
     14 C          64.4448   87.2693   14.8965 C.2     1  UNL1        0.0896
     15 N          63.8280   86.1672   14.0872 N.am    1  UNL1       -0.1770
     16 C          63.0905   86.4889   12.8213 C.2     1  UNL1        0.2627
     17 O          62.4737   85.3868   12.0119 O.2     1  UNL1       -0.2719
     18 N          63.4657   90.4384   12.7175 N.pl3   1  UNL1       -0.3348
     19 H          63.0537   90.6429   11.8470 H       1  UNL1        0.1466
     20 C          63.9725   91.5505   13.5871 C.3     1  UNL1        0.0933
     21 C          65.3994   91.9992   13.4753 C.3     1  UNL1        0.0694
     22 C          65.9564   92.4025   12.1422 C.ar    1  UNL1        0.0890
     23 N          65.1921   93.0536   11.0278 N.ar    1  UNL1       -0.2274
     24 C          66.1389   93.2791    9.8863 C.ar    1  UNL1        0.1789
     25 N          67.4882   92.7674   10.2953 N.ar    1  UNL1       -0.2986
     26 C          68.7320   92.7928    9.4572 C.3     1  UNL1        0.1329
     27 C          67.3755   92.2256   11.6895 C.ar    1  UNL1        0.1338
     28 CL         68.4867   91.6142   12.4904 Cl      1  UNL1       -0.0619
     29 C          59.7958   92.3895    3.1427 C.3     1  UNL1        0.0610
     30 C          61.1566   91.8951    3.5349 C.3     1  UNL1        0.0374
     31 C          61.3222   91.0496    4.7629 C.3     1  UNL1        0.0919
     32 N          60.1271   90.6986    5.5985 N.pl3   1  UNL1       -0.3103
     33 C          58.7664   91.1929    5.2063 C.3     1  UNL1        0.0919
     34 C          58.6007   92.0384    3.9784 C.3     1  UNL1        0.0374
     35 C          59.1332   95.7712   -1.7690 C.2     1  UNL1        0.4051
     36 O          57.9762   95.5327   -2.6933 O.2     1  UNL1       -0.2262
     37 N          59.2989   94.9258   -0.5410 N.am    1  UNL1       -0.2432
     38 C          60.4558   95.1644    0.3833 C.3     1  UNL1        0.1141
     39 C          60.6215   94.3189    1.6112 C.3     1  UNL1        0.0940
     40 N          59.6302   93.2349    1.9148 N.3     1  UNL1       -0.2710
     41 C          58.4732   92.9963    0.9904 C.3     1  UNL1        0.0940
     42 C          58.3075   93.8418   -0.2375 C.3     1  UNL1        0.1141
     43 C          61.4926   96.5011   -2.5754 C.3     1  UNL1        0.2573
     44 O          60.1245   96.8553   -2.0725 O.3     1  UNL1       -0.4304
@<TRIPOS>BOND
     1    43    44    1
     2    44    35    1
     3    35    36    2
     4    35    37   am
     5    37    38    1
     6    38    39    1
     7    39    40    1
     8    40    29    1
     9    29    30    1
    10    30    31    1
    11    31    32    1
    12    32     1    1
    13     1     2    2
    14     2     3    1
    15     3     4    1
    16     3     5    2
    17     5     6    1
    18     6     7    2
    19     7    11    1
    20    11    12    1
    21    12    18    1
    22    18    20    1
    23    20    21    1
    24    21    22    1
    25    22    23   ar
    26    23    24   ar
    27    24    25   ar
    28    25    26    1
    29    25    27   ar
    30    27    28    1
    31    12    13    2
    32    13    14    1
    33    14    15    2
    34    15    16    1
    35    16    17    2
    36     7     8    1
    37     8     9    2
    38     9    10    1
    39    32    33    1
    40    33    34    1
    41    40    41    1
    42    41    42    1
    43    42    37    1
    44    34    29    1
    45    10     1    1
    46     9     5    1
    47    16    11    1
    48    27    22   ar
    49    18    19    1
@<TRIPOS>MOLECULE
*****
 44 49 0 0 0
SMALL
GASTEIGER

@<TRIPOS>ATOM
      1 C          60.3698   89.3161    8.0039 C.2     1  UNL1        0.0332
      2 C          59.5846   89.6190    9.2454 C.2     1  UNL1        0.0101
      3 C          59.7909   88.7965   10.4828 C.2     1  UNL1        0.0255
      4 C          59.0056   89.0995   11.7244 C.3     1  UNL1        0.0351
      5 C          60.7824   87.6709   10.4784 C.2     1  UNL1        0.2278
      6 N          61.1974   86.6948   11.5391 N.2     1  UNL1       -0.0345
      7 C          62.2391   85.7886   10.9530 C.2     1  UNL1        0.3649
      8 N          62.4680   86.2046    9.5301 N.2     1  UNL1       -0.0380
      9 C          61.5676   87.3679    9.2368 C.2     1  UNL1        0.2184
     10 C          61.3613   88.1905    7.9995 C.3     1  UNL1        0.1186
     11 C          62.9307   84.6639   11.6648 C.3     1  UNL1        0.2250
     12 C          63.3955   84.8447   13.0794 C.2     1  UNL1        0.0436
     13 C          64.0871   83.7198   13.7912 C.2     1  UNL1        0.0288
     14 C          64.3138   82.4142   13.0884 C.2     1  UNL1        0.0896
     15 N          63.8489   82.2334   11.6737 N.am    1  UNL1       -0.1770
     16 C          63.1574   83.3583   10.9620 C.2     1  UNL1        0.2627
     17 O          62.6925   83.1774    9.5473 O.2     1  UNL1       -0.2719
     18 N          63.1688   86.1502   13.7823 N.pl3   1  UNL1       -0.3348
     19 H          62.2879   86.5875   13.7366 H       1  UNL1        0.1466
     20 C          64.2843   86.7897   14.5549 C.3     1  UNL1        0.0933
     21 C          64.1943   88.2354   14.9443 C.3     1  UNL1        0.0694
     22 C          64.0691   89.2908   13.8858 C.ar    1  UNL1        0.0890
     23 N          63.0740   89.3002   12.7634 N.ar    1  UNL1       -0.2274
     24 C          63.3070   90.5373   11.9478 C.ar    1  UNL1        0.1789
     25 N          64.4460   91.2925   12.5659 N.ar    1  UNL1       -0.2986
     26 C          65.0142   92.5902   12.0730 C.3     1  UNL1        0.1329
     27 C          64.9171   90.5222   13.7638 C.ar    1  UNL1        0.1338
     28 CL         66.0390   90.9143   14.6789 Cl      1  UNL1       -0.0619
     29 C          59.7513   91.7837    4.2920 C.3     1  UNL1        0.0610
     30 C          58.5744   91.3844    5.1318 C.3     1  UNL1        0.0374
     31 C          58.7806   90.5619    6.3692 C.3     1  UNL1        0.0919
     32 N          60.1636   90.1386    6.7666 N.pl3   1  UNL1       -0.3103
     33 C          61.3405   90.5379    5.9267 C.3     1  UNL1        0.0919
     34 C          61.1344   91.3605    4.6894 C.3     1  UNL1        0.0374
     35 C          58.9267   95.0740   -0.6573 C.2     1  UNL1        0.4051
     36 O          59.5939   96.4108   -0.7888 O.2     1  UNL1       -0.2262
     37 N          59.1328   94.2513    0.5801 N.am    1  UNL1       -0.2432
     38 C          58.4656   92.9144    0.7117 C.3     1  UNL1        0.1141
     39 C          58.6718   92.0918    1.9490 C.3     1  UNL1        0.0940
     40 N          59.5452   92.6063    3.0547 N.3     1  UNL1       -0.2710
     41 C          60.2124   93.9432    2.9230 C.3     1  UNL1        0.0940
     42 C          60.0062   94.7658    1.6858 C.3     1  UNL1        0.1141
     43 C          56.5968   94.9166   -1.7960 C.3     1  UNL1        0.2573
     44 O          58.0533   94.5595   -1.7629 O.3     1  UNL1       -0.4304
@<TRIPOS>BOND
     1    43    44    1
     2    44    35    1
     3    35    36    2
     4    35    37   am
     5    37    38    1
     6    38    39    1
     7    39    40    1
     8    40    29    1
     9    29    30    1
    10    30    31    1
    11    31    32    1
    12    32     1    1
    13     1     2    2
    14     2     3    1
    15     3     4    1
    16     3     5    2
    17     5     6    1
    18     6     7    2
    19     7    11    1
    20    11    12    1
    21    12    18    1
    22    18    20    1
    23    20    21    1
    24    21    22    1
    25    22    23   ar
    26    23    24   ar
    27    24    25   ar
    28    25    26    1
    29    25    27   ar
    30    27    28    1
    31    12    13    2
    32    13    14    1
    33    14    15    2
    34    15    16    1
    35    16    17    2
    36     7     8    1
    37     8     9    2
    38     9    10    1
    39    32    33    1
    40    33    34    1
    41    40    41    1
    42    41    42    1
    43    42    37    1
    44    34    29    1
    45    10     1    1
    46     9     5    1
    47    16    11    1
    48    27    22   ar
    49    18    19    1
