@<TRIPOS>MOLECULE
*****
 33 37 0 0 0
SMALL
GASTEIGER

@<TRIPOS>ATOM
      1 C          63.8867   88.6980   14.3017 C.ar    1  UNL1        0.0519
      2 C          63.4103   88.8618   15.7145 C.ar    1  UNL1        0.0148
      3 C          63.7216   90.1198   16.4699 C.ar    1  UNL1        0.0044
      4 C          64.5095   91.2139   15.8124 C.ar    1  UNL1        0.0402
      5 C          64.9658   92.5560   16.3027 C.ar    1  UNL1        0.1235
      6 N          65.7243   93.2216   15.1929 N.ar    1  UNL1       -0.1468
      7 N          65.7367   92.2908   14.0166 N.ar    1  UNL1       -0.1274
      8 C          64.9859   91.0500   14.3995 C.ar    1  UNL1        0.1053
      9 C          64.6746   89.7921   13.6442 C.ar    1  UNL1        0.0354
     10 O          64.9282   86.0616   15.2841 O.2     1  UNL1       -0.2747
     11 C          64.0961   86.1219   14.0376 C.2     1  UNL1        0.2270
     12 N          63.5753   87.4400   13.5464 N.am    1  UNL1       -0.2838
     13 H          63.0292   87.4795   12.7283 H       1  UNL1        0.1549
     14 C          63.7846   84.8638   13.2822 C.3     1  UNL1        0.0925
     15 C          63.0355   84.9342   11.9846 C.3     1  UNL1        0.0119
     16 C          62.7240   83.6763   11.2292 C.3     1  UNL1        0.0176
     17 C          63.1617   82.3480   11.7715 C.3     1  UNL1        0.0686
     18 N          63.9108   82.2776   13.0691 N.3     1  UNL1       -0.2971
     19 C          64.2223   83.5355   13.8245 C.3     1  UNL1        0.0777
     20 H          64.8030   81.8253   12.8699 H       1  UNL1        0.1233
     21 S          66.3859   92.5546   12.6904 S.O2    1  UNL1        0.1006
     22 O          67.7187   92.6784   13.3675 O.2     1  UNL1       -0.1463
     23 O          65.0532   92.4308   12.0133 O.2     1  UNL1       -0.1463
     24 C          67.0352   92.8184   11.3642 C.ar    1  UNL1        0.1291
     25 C          67.8220   91.7364   10.6859 C.ar    1  UNL1        0.0204
     26 C          68.4712   92.0001    9.3596 C.ar    1  UNL1        0.0014
     27 C          68.3337   93.3459    8.7117 C.ar    1  UNL1        0.0001
     28 C          67.5468   94.4280    9.3900 C.ar    1  UNL1        0.0013
     29 C          67.4092   95.7738    8.7420 C.ar    1  UNL1        0.0000
     30 C          66.6224   96.8558    9.4203 C.ar    1  UNL1        0.0000
     31 C          65.9732   96.5920   10.7465 C.ar    1  UNL1        0.0000
     32 C          66.1108   95.2463   11.3945 C.ar    1  UNL1        0.0013
     33 C          66.8976   94.1642   10.7162 C.ar    1  UNL1        0.0191
@<TRIPOS>BOND
     1    10    11    2
     2    11    12   am
     3    12     1    1
     4     1     2   ar
     5     2     3   ar
     6     3     4   ar
     7     4     5   ar
     8     5     6   ar
     9     6     7   ar
    10     7    21    1
    11    21    22    2
    12    21    23    2
    13    21    24    1
    14    24    25   ar
    15    25    26   ar
    16    26    27   ar
    17    27    28   ar
    18    28    29   ar
    19    29    30   ar
    20    30    31   ar
    21    31    32   ar
    22    32    33   ar
    23     7     8   ar
    24     8     9   ar
    25    11    14    1
    26    14    15    1
    27    15    16    1
    28    16    17    1
    29    17    18    1
    30    18    19    1
    31     9     1   ar
    32    19    14    1
    33     8     4   ar
    34    33    24   ar
    35    33    28   ar
    36    12    13    1
    37    18    20    1
@<TRIPOS>MOLECULE
*****
 33 37 0 0 0
SMALL
GASTEIGER

@<TRIPOS>ATOM
      1 C          62.9626   90.1780   11.3017 C.ar    1  UNL1        0.0519
      2 C          62.0864   91.0008   10.4044 C.ar    1  UNL1        0.0148
      3 C          61.0799   90.3294    9.5178 C.ar    1  UNL1        0.0044
      4 C          60.9496   88.8351    9.5285 C.ar    1  UNL1        0.0402
      5 C          60.0546   87.9001    8.7703 C.ar    1  UNL1        0.1235
      6 N          60.3778   86.4995    9.1990 N.ar    1  UNL1       -0.1468
      7 N          61.4724   86.5688   10.2222 N.ar    1  UNL1       -0.1274
      8 C          61.8258   88.0123   10.4258 C.ar    1  UNL1        0.1053
      9 C          62.8324   88.6837   11.3124 C.ar    1  UNL1        0.0354
     10 O          62.7506   89.9115   14.2823 O.2     1  UNL1       -0.2747
     11 C          63.8631   90.7163   13.6785 C.2     1  UNL1        0.2270
     12 N          63.9691   90.8495   12.1882 N.am    1  UNL1       -0.2838
     13 H          64.6993   91.3777   11.7919 H       1  UNL1        0.1549
     14 C          64.8697   91.3879   14.5651 C.3     1  UNL1        0.0925
     15 C          66.3193   91.3990   14.1797 C.3     1  UNL1        0.0119
     16 C          67.3259   92.0706   15.0662 C.3     1  UNL1        0.0176
     17 C          66.8828   92.7310   16.3380 C.3     1  UNL1        0.0686
     18 N          65.4332   92.7198   16.7233 N.3     1  UNL1       -0.2971
     19 C          64.4266   92.0483   15.8369 C.3     1  UNL1        0.0777
     20 H          65.1444   93.6941   16.8114 H       1  UNL1        0.1233
     21 S          62.1030   85.3998   10.9193 S.O2    1  UNL1        0.1006
     22 O          62.8835   85.0810    9.6787 O.2     1  UNL1       -0.1463
     23 O          61.3225   85.7187   12.1600 O.2     1  UNL1       -0.1463
     24 C          62.7335   84.2309   11.6165 C.ar    1  UNL1        0.1291
     25 C          62.6169   82.8555   11.0295 C.ar    1  UNL1        0.0204
     26 C          63.2474   81.6866   11.7266 C.ar    1  UNL1        0.0014
     27 C          63.9946   81.8930   13.0108 C.ar    1  UNL1        0.0001
     28 C          64.1113   83.2685   13.5978 C.ar    1  UNL1        0.0013
     29 C          64.8584   83.4749   14.8820 C.ar    1  UNL1        0.0000
     30 C          64.9750   84.8503   15.4690 C.ar    1  UNL1        0.0000
     31 C          64.3445   86.0193   14.7718 C.ar    1  UNL1        0.0000
     32 C          63.5973   85.8128   13.4877 C.ar    1  UNL1        0.0013
     33 C          63.4807   84.4374   12.9007 C.ar    1  UNL1        0.0191
@<TRIPOS>BOND
     1    10    11    2
     2    11    12   am
     3    12     1    1
     4     1     2   ar
     5     2     3   ar
     6     3     4   ar
     7     4     5   ar
     8     5     6   ar
     9     6     7   ar
    10     7    21    1
    11    21    22    2
    12    21    23    2
    13    21    24    1
    14    24    25   ar
    15    25    26   ar
    16    26    27   ar
    17    27    28   ar
    18    28    29   ar
    19    29    30   ar
    20    30    31   ar
    21    31    32   ar
    22    32    33   ar
    23     7     8   ar
    24     8     9   ar
    25    11    14    1
    26    14    15    1
    27    15    16    1
    28    16    17    1
    29    17    18    1
    30    18    19    1
    31     9     1   ar
    32    19    14    1
    33     8     4   ar
    34    33    24   ar
    35    33    28   ar
    36    12    13    1
    37    18    20    1
@<TRIPOS>MOLECULE
*****
 33 37 0 0 0
SMALL
GASTEIGER

@<TRIPOS>ATOM
      1 C          63.1043   89.4220   13.2187 C.ar    1  UNL1        0.0519
      2 C          62.8040   89.3683   14.6873 C.ar    1  UNL1        0.0148
      3 C          63.5629   90.2430   15.6406 C.ar    1  UNL1        0.0044
      4 C          64.6223   91.1715   15.1252 C.ar    1  UNL1        0.0402
      5 C          65.5279   92.1451   15.8195 C.ar    1  UNL1        0.1235
      6 N          66.3880   92.8005   14.7799 N.ar    1  UNL1       -0.1468
      7 N          66.0140   92.2320   13.4432 N.ar    1  UNL1       -0.1274
      8 C          64.9227   91.2253   13.6566 C.ar    1  UNL1        0.1053
      9 C          64.1637   90.3505   12.7033 C.ar    1  UNL1        0.0354
     10 O          62.5438   90.3751   10.4298 O.2     1  UNL1       -0.2747
     11 C          62.0650   89.0237   10.8711 C.2     1  UNL1        0.2270
     12 N          62.3453   88.5472   12.2655 N.am    1  UNL1       -0.2838
     13 H          62.0311   87.6603   12.5551 H       1  UNL1        0.1549
     14 C          61.3059   88.1488    9.9179 C.3     1  UNL1        0.0925
     15 C          61.7374   86.7293    9.6970 C.3     1  UNL1        0.0119
     16 C          60.9784   85.8544    8.7439 C.3     1  UNL1        0.0176
     17 C          59.7879   86.3991    8.0117 C.3     1  UNL1        0.0686
     18 N          59.3565   87.8186    8.2326 N.3     1  UNL1       -0.2971
     19 C          60.1155   88.6935    9.1857 C.3     1  UNL1        0.0777
     20 H          58.3934   87.7850    8.5670 H       1  UNL1        0.1233
     21 S          66.6240   92.6049   12.1245 S.O2    1  UNL1        0.1006
     22 O          67.9937   92.3933   12.6984 O.2     1  UNL1       -0.1463
     23 O          65.2544   92.8165   11.5507 O.2     1  UNL1       -0.1463
     24 C          67.2341   92.9777   10.8059 C.ar    1  UNL1        0.1291
     25 C          68.2202   92.0579   10.1489 C.ar    1  UNL1        0.0204
     26 C          68.8302   92.4307    8.8303 C.ar    1  UNL1        0.0014
     27 C          68.4543   93.7233    8.1686 C.ar    1  UNL1        0.0001
     28 C          67.4682   94.6432    8.8256 C.ar    1  UNL1        0.0013
     29 C          67.0922   95.9358    8.1640 C.ar    1  UNL1        0.0000
     30 C          66.1062   96.8555    8.8210 C.ar    1  UNL1        0.0000
     31 C          65.4961   96.4827   10.1396 C.ar    1  UNL1        0.0000
     32 C          65.8721   95.1901   10.8012 C.ar    1  UNL1        0.0013
     33 C          66.8581   94.2703   10.1442 C.ar    1  UNL1        0.0191
@<TRIPOS>BOND
     1    10    11    2
     2    11    12   am
     3    12     1    1
     4     1     2   ar
     5     2     3   ar
     6     3     4   ar
     7     4     5   ar
     8     5     6   ar
     9     6     7   ar
    10     7    21    1
    11    21    22    2
    12    21    23    2
    13    21    24    1
    14    24    25   ar
    15    25    26   ar
    16    26    27   ar
    17    27    28   ar
    18    28    29   ar
    19    29    30   ar
    20    30    31   ar
    21    31    32   ar
    22    32    33   ar
    23     7     8   ar
    24     8     9   ar
    25    11    14    1
    26    14    15    1
    27    15    16    1
    28    16    17    1
    29    17    18    1
    30    18    19    1
    31     9     1   ar
    32    19    14    1
    33     8     4   ar
    34    33    24   ar
    35    33    28   ar
    36    12    13    1
    37    18    20    1
@<TRIPOS>MOLECULE
*****
 33 37 0 0 0
SMALL
GASTEIGER

@<TRIPOS>ATOM
      1 C          63.4771   89.3733   13.0614 C.ar    1  UNL1        0.0519
      2 C          63.2842   88.9125   14.4758 C.ar    1  UNL1        0.0148
      3 C          63.8464   89.7171   15.6100 C.ar    1  UNL1        0.0044
      4 C          64.6015   90.9826   15.3298 C.ar    1  UNL1        0.0402
      5 C          65.2652   91.9769   16.2358 C.ar    1  UNL1        0.1235
      6 N          65.8682   93.0522   15.3814 N.ar    1  UNL1       -0.1468
      7 N          65.5772   92.7225   13.9473 N.ar    1  UNL1       -0.1274
      8 C          64.7943   91.4434   13.9154 C.ar    1  UNL1        0.1053
      9 C          64.2321   90.6388   12.7812 C.ar    1  UNL1        0.0354
     10 O          61.0630   90.3568   11.5763 O.2     1  UNL1       -0.2747
     11 C          61.7079   89.0603   11.1847 C.2     1  UNL1        0.2270
     12 N          62.9148   88.5686   11.9273 N.am    1  UNL1       -0.2838
     13 H          63.3380   87.7177   11.6703 H       1  UNL1        0.1549
     14 C          61.1456   88.2555   10.0505 C.3     1  UNL1        0.0925
     15 C          61.5255   86.8129    9.8939 C.3     1  UNL1        0.0119
     16 C          60.9634   86.0081    8.7598 C.3     1  UNL1        0.0176
     17 C          60.0213   86.6459    7.7823 C.3     1  UNL1        0.0686
     18 N          59.6414   88.0886    7.9389 N.3     1  UNL1       -0.2971
     19 C          60.2036   88.8934    9.0730 C.3     1  UNL1        0.0777
     20 H          58.6261   88.1172    8.0324 H       1  UNL1        0.1233
     21 S          65.9956   93.5301   12.7545 S.O2    1  UNL1        0.1006
     22 O          64.7979   93.0350   11.9992 O.2     1  UNL1       -0.1463
     23 O          67.1933   94.0251   13.5098 O.2     1  UNL1       -0.1463
     24 C          66.4140   94.3376   11.5617 C.ar    1  UNL1        0.1291
     25 C          66.0527   95.7909   11.4757 C.ar    1  UNL1        0.0204
     26 C          66.4711   96.5985   10.2829 C.ar    1  UNL1        0.0014
     27 C          67.2508   95.9528    9.1761 C.ar    1  UNL1        0.0001
     28 C          67.6121   94.4994    9.2620 C.ar    1  UNL1        0.0013
     29 C          68.3918   93.8537    8.1552 C.ar    1  UNL1        0.0000
     30 C          68.7530   92.4004    8.2411 C.ar    1  UNL1        0.0000
     31 C          68.3346   91.5929    9.4339 C.ar    1  UNL1        0.0000
     32 C          67.5549   92.2386   10.5408 C.ar    1  UNL1        0.0013
     33 C          67.1937   93.6918   10.4548 C.ar    1  UNL1        0.0191
@<TRIPOS>BOND
     1    10    11    2
     2    11    12   am
     3    12     1    1
     4     1     2   ar
     5     2     3   ar
     6     3     4   ar
     7     4     5   ar
     8     5     6   ar
     9     6     7   ar
    10     7    21    1
    11    21    22    2
    12    21    23    2
    13    21    24    1
    14    24    25   ar
    15    25    26   ar
    16    26    27   ar
    17    27    28   ar
    18    28    29   ar
    19    29    30   ar
    20    30    31   ar
    21    31    32   ar
    22    32    33   ar
    23     7     8   ar
    24     8     9   ar
    25    11    14    1
    26    14    15    1
    27    15    16    1
    28    16    17    1
    29    17    18    1
    30    18    19    1
    31     9     1   ar
    32    19    14    1
    33     8     4   ar
    34    33    24   ar
    35    33    28   ar
    36    12    13    1
    37    18    20    1
@<TRIPOS>MOLECULE
*****
 33 37 0 0 0
SMALL
GASTEIGER

@<TRIPOS>ATOM
      1 C          63.1027   90.7671   10.7623 C.ar    1  UNL1        0.0519
      2 C          63.8924   91.9782   10.3630 C.ar    1  UNL1        0.0148
      3 C          64.8726   92.5845   11.3230 C.ar    1  UNL1        0.0044
      4 C          65.0631   91.9796   12.6823 C.ar    1  UNL1        0.0402
      5 C          65.9500   92.3545   13.8325 C.ar    1  UNL1        0.1235
      6 N          65.7084   91.3751   14.9426 N.ar    1  UNL1       -0.1468
      7 N          64.6722   90.3948   14.4786 N.ar    1  UNL1       -0.1274
      8 C          64.2734   90.7684   13.0817 C.ar    1  UNL1        0.1053
      9 C          63.2932   90.1621   12.1217 C.ar    1  UNL1        0.0354
     10 O          62.4389   87.8468   10.9402 O.2     1  UNL1       -0.2747
     11 C          61.7906   88.7008    9.8912 C.2     1  UNL1        0.2270
     12 N          62.1225   90.1609    9.8023 N.am    1  UNL1       -0.2838
     13 H          61.6969   90.7214    9.1138 H       1  UNL1        0.1549
     14 C          60.8103   88.0946    8.9310 C.3     1  UNL1        0.0925
     15 C          60.8173   86.6148    8.6864 C.3     1  UNL1        0.0119
     16 C          59.8371   86.0086    7.7263 C.3     1  UNL1        0.0176
     17 C          58.8499   86.8824    7.0109 C.3     1  UNL1        0.0686
     18 N          58.8429   88.3623    7.2556 N.3     1  UNL1       -0.2971
     19 C          59.8230   88.9684    8.2156 C.3     1  UNL1        0.0777
     20 H          57.9114   88.5999    7.5965 H       1  UNL1        0.1233
     21 S          64.1300   89.2432   15.2721 S.O2    1  UNL1        0.1006
     22 O          65.3127   88.4113   14.8729 O.2     1  UNL1       -0.1463
     23 O          62.9474   90.0750   15.6713 O.2     1  UNL1       -0.1463
     24 C          63.5878   88.0915   16.0657 C.ar    1  UNL1        0.1291
     25 C          63.1156   88.3067   17.4730 C.ar    1  UNL1        0.0204
     26 C          62.5734   87.1551   18.2666 C.ar    1  UNL1        0.0014
     27 C          62.5034   85.7882   17.6528 C.ar    1  UNL1        0.0001
     28 C          62.9756   85.5730   16.2454 C.ar    1  UNL1        0.0013
     29 C          62.9056   84.2061   15.6316 C.ar    1  UNL1        0.0000
     30 C          63.3778   83.9909   14.2243 C.ar    1  UNL1        0.0000
     31 C          63.9200   85.1426   13.4307 C.ar    1  UNL1        0.0000
     32 C          63.9900   86.5094   14.0445 C.ar    1  UNL1        0.0013
     33 C          63.5178   86.7246   15.4518 C.ar    1  UNL1        0.0191
@<TRIPOS>BOND
     1    10    11    2
     2    11    12   am
     3    12     1    1
     4     1     2   ar
     5     2     3   ar
     6     3     4   ar
     7     4     5   ar
     8     5     6   ar
     9     6     7   ar
    10     7    21    1
    11    21    22    2
    12    21    23    2
    13    21    24    1
    14    24    25   ar
    15    25    26   ar
    16    26    27   ar
    17    27    28   ar
    18    28    29   ar
    19    29    30   ar
    20    30    31   ar
    21    31    32   ar
    22    32    33   ar
    23     7     8   ar
    24     8     9   ar
    25    11    14    1
    26    14    15    1
    27    15    16    1
    28    16    17    1
    29    17    18    1
    30    18    19    1
    31     9     1   ar
    32    19    14    1
    33     8     4   ar
    34    33    24   ar
    35    33    28   ar
    36    12    13    1
    37    18    20    1
@<TRIPOS>MOLECULE
*****
 33 37 0 0 0
SMALL
GASTEIGER

@<TRIPOS>ATOM
      1 C          62.3512   86.9217   11.6235 C.ar    1  UNL1        0.0519
      2 C          61.7238   86.9768   10.2621 C.ar    1  UNL1        0.0148
      3 C          61.7416   88.2562    9.4793 C.ar    1  UNL1        0.0044
      4 C          62.3868   89.4805   10.0578 C.ar    1  UNL1        0.0402
      5 C          62.5570   90.8723    9.5250 C.ar    1  UNL1        0.1235
      6 N          63.2896   91.6774   10.5570 N.ar    1  UNL1       -0.1468
      7 N          63.5722   90.7832   11.7277 N.ar    1  UNL1       -0.1274
      8 C          63.0143   89.4254   11.4192 C.ar    1  UNL1        0.1053
      9 C          62.9964   88.1461   12.2020 C.ar    1  UNL1        0.0354
     10 O          63.1797   84.3517   10.3163 O.2     1  UNL1       -0.2747
     11 C          62.7476   84.3573   11.7527 C.2     1  UNL1        0.2270
     12 N          62.3334   85.6423   12.4062 N.am    1  UNL1       -0.2838
     13 H          62.0497   85.6460   13.3490 H       1  UNL1        0.1549
     14 C          62.7297   83.0779   12.5355 C.3     1  UNL1        0.0925
     15 C          62.8022   81.7607   11.8216 C.3     1  UNL1        0.0119
     16 C          62.7843   80.4813   12.6043 C.3     1  UNL1        0.0176
     17 C          62.6940   80.5191   14.1011 C.3     1  UNL1        0.0686
     18 N          62.6215   81.8363   14.8151 N.3     1  UNL1       -0.2971
     19 C          62.6394   83.1157   14.0323 C.3     1  UNL1        0.0777
     20 H          63.4172   81.8699   15.4524 H       1  UNL1        0.1233
     21 S          64.2872   91.1775   12.9860 S.O2    1  UNL1        0.1006
     22 O          63.9834   89.8339   13.5797 O.2     1  UNL1       -0.1463
     23 O          64.5911   92.5210   12.3923 O.2     1  UNL1       -0.1463
     24 C          65.0022   91.5718   14.2443 C.ar    1  UNL1        0.1291
     25 C          64.2360   91.7306   15.5240 C.ar    1  UNL1        0.0204
     26 C          64.9510   92.1249   16.7823 C.ar    1  UNL1        0.0014
     27 C          66.4322   92.3604   16.7609 C.ar    1  UNL1        0.0001
     28 C          67.1985   92.2015   15.4812 C.ar    1  UNL1        0.0013
     29 C          68.6798   92.4370   15.4598 C.ar    1  UNL1        0.0000
     30 C          69.4460   92.2781   14.1801 C.ar    1  UNL1        0.0000
     31 C          68.7310   91.8838   12.9218 C.ar    1  UNL1        0.0000
     32 C          67.2498   91.6484   12.9432 C.ar    1  UNL1        0.0013
     33 C          66.4835   91.8072   14.2229 C.ar    1  UNL1        0.0191
@<TRIPOS>BOND
     1    10    11    2
     2    11    12   am
     3    12     1    1
     4     1     2   ar
     5     2     3   ar
     6     3     4   ar
     7     4     5   ar
     8     5     6   ar
     9     6     7   ar
    10     7    21    1
    11    21    22    2
    12    21    23    2
    13    21    24    1
    14    24    25   ar
    15    25    26   ar
    16    26    27   ar
    17    27    28   ar
    18    28    29   ar
    19    29    30   ar
    20    30    31   ar
    21    31    32   ar
    22    32    33   ar
    23     7     8   ar
    24     8     9   ar
    25    11    14    1
    26    14    15    1
    27    15    16    1
    28    16    17    1
    29    17    18    1
    30    18    19    1
    31     9     1   ar
    32    19    14    1
    33     8     4   ar
    34    33    24   ar
    35    33    28   ar
    36    12    13    1
    37    18    20    1
@<TRIPOS>MOLECULE
*****
 33 37 0 0 0
SMALL
GASTEIGER

@<TRIPOS>ATOM
      1 C          63.8957   86.3347   13.9797 C.ar    1  UNL1        0.0519
      2 C          64.6914   87.0902   15.0025 C.ar    1  UNL1        0.0148
      3 C          64.7960   88.5841   14.9176 C.ar    1  UNL1        0.0044
      4 C          64.1049   89.3225   13.8098 C.ar    1  UNL1        0.0402
      5 C          64.0288   90.7818   13.4709 C.ar    1  UNL1        0.1235
      6 N          63.1860   90.9281   12.2387 N.ar    1  UNL1       -0.1468
      7 N          62.7413   89.5593   11.8160 N.ar    1  UNL1       -0.1274
      8 C          63.3092   88.5670   12.7870 C.ar    1  UNL1        0.1053
      9 C          63.2046   87.0731   12.8720 C.ar    1  UNL1        0.0354
     10 O          62.1976   84.8354   12.0128 O.2     1  UNL1       -0.2747
     11 C          62.9421   84.0911   13.0813 C.2     1  UNL1        0.2270
     12 N          63.7911   84.8408   14.0648 N.am    1  UNL1       -0.2838
     13 H          64.2797   84.3523   14.7661 H       1  UNL1        0.1549
     14 C          62.8375   82.5971   13.1664 C.3     1  UNL1        0.0925
     15 C          62.8908   81.7692   11.9168 C.3     1  UNL1        0.0119
     16 C          62.7862   80.2753   12.0018 C.3     1  UNL1        0.0176
     17 C          62.6285   79.6093   13.3366 C.3     1  UNL1        0.0686
     18 N          62.5753   80.4372   14.5862 N.3     1  UNL1       -0.2971
     19 C          62.6798   81.9312   14.5012 C.3     1  UNL1        0.0777
     20 H          63.3414   80.1219   15.1812 H       1  UNL1        0.1233
     21 S          61.8799   89.2390   10.6305 S.O2    1  UNL1        0.1006
     22 O          60.8603   88.6185   11.5389 O.2     1  UNL1       -0.1463
     23 O          62.8996   89.8596    9.7220 O.2     1  UNL1       -0.1463
     24 C          61.0186   88.9188    9.4450 C.ar    1  UNL1        0.1291
     25 C          60.0026   89.9127    8.9657 C.ar    1  UNL1        0.0204
     26 C          59.1412   89.5925    7.7801 C.ar    1  UNL1        0.0014
     27 C          59.2958   88.2782    7.0739 C.ar    1  UNL1        0.0001
     28 C          60.3118   87.2842    7.5532 C.ar    1  UNL1        0.0013
     29 C          60.4665   85.9699    6.8469 C.ar    1  UNL1        0.0000
     30 C          61.4824   84.9760    7.3262 C.ar    1  UNL1        0.0000
     31 C          62.3438   85.2962    8.5118 C.ar    1  UNL1        0.0000
     32 C          62.1892   86.6105    9.2180 C.ar    1  UNL1        0.0013
     33 C          61.1732   87.6044    8.7387 C.ar    1  UNL1        0.0191
@<TRIPOS>BOND
     1    10    11    2
     2    11    12   am
     3    12     1    1
     4     1     2   ar
     5     2     3   ar
     6     3     4   ar
     7     4     5   ar
     8     5     6   ar
     9     6     7   ar
    10     7    21    1
    11    21    22    2
    12    21    23    2
    13    21    24    1
    14    24    25   ar
    15    25    26   ar
    16    26    27   ar
    17    27    28   ar
    18    28    29   ar
    19    29    30   ar
    20    30    31   ar
    21    31    32   ar
    22    32    33   ar
    23     7     8   ar
    24     8     9   ar
    25    11    14    1
    26    14    15    1
    27    15    16    1
    28    16    17    1
    29    17    18    1
    30    18    19    1
    31     9     1   ar
    32    19    14    1
    33     8     4   ar
    34    33    24   ar
    35    33    28   ar
    36    12    13    1
    37    18    20    1
@<TRIPOS>MOLECULE
*****
 33 37 0 0 0
SMALL
GASTEIGER

@<TRIPOS>ATOM
      1 C          62.7788   93.3547    1.5393 C.ar    1  UNL1        0.0519
      2 C          64.1078   93.9340    1.9239 C.ar    1  UNL1        0.0148
      3 C          64.8619   94.7916    0.9514 C.ar    1  UNL1        0.0044
      4 C          64.2869   95.0699   -0.4058 C.ar    1  UNL1        0.0402
      5 C          64.7959   95.8727   -1.5662 C.ar    1  UNL1        0.1235
      6 N          63.7814   95.7894   -2.6679 N.ar    1  UNL1       -0.1468
      7 N          62.6454   94.9352   -2.1885 N.ar    1  UNL1       -0.1274
      8 C          62.9578   94.4906   -0.7904 C.ar    1  UNL1        0.1053
      9 C          62.2037   93.6330    0.1821 C.ar    1  UNL1        0.0354
     10 O          60.1142   94.2563    2.5822 O.2     1  UNL1       -0.2747
     11 C          60.6925   92.9479    3.0334 C.2     1  UNL1        0.2270
     12 N          62.0248   92.4971    2.5119 N.am    1  UNL1       -0.2838
     13 H          62.4043   91.6383    2.8080 H       1  UNL1        0.1549
     14 C          59.9386   92.0902    4.0060 C.3     1  UNL1        0.0925
     15 C          58.4455   92.1985    4.1008 C.3     1  UNL1        0.0119
     16 C          57.6915   91.3408    5.0734 C.3     1  UNL1        0.0176
     17 C          58.4307   90.3749    5.9512 C.3     1  UNL1        0.0686
     18 N          59.9237   90.2666    5.8564 N.3     1  UNL1       -0.2971
     19 C          60.6777   91.1242    4.8838 C.3     1  UNL1        0.0777
     20 H          60.1341   89.2972    5.6188 H       1  UNL1        0.1233
     21 S          61.4133   94.5869   -2.9699 S.O2    1  UNL1        0.1006
     22 O          60.7798   95.8792   -2.5471 O.2     1  UNL1       -0.1463
     23 O          62.0468   93.2946   -3.3927 O.2     1  UNL1       -0.1463
     24 C          60.1812   94.2386   -3.7513 C.ar    1  UNL1        0.1291
     25 C          60.1063   94.5575   -5.2151 C.ar    1  UNL1        0.0204
     26 C          58.8742   94.2092   -5.9965 C.ar    1  UNL1        0.0014
     27 C          57.7170   93.5419   -5.3142 C.ar    1  UNL1        0.0001
     28 C          57.7919   93.2229   -3.8504 C.ar    1  UNL1        0.0013
     29 C          56.6347   92.5556   -3.1680 C.ar    1  UNL1        0.0000
     30 C          56.7096   92.2366   -1.7043 C.ar    1  UNL1        0.0000
     31 C          57.9417   92.5850   -0.9229 C.ar    1  UNL1        0.0000
     32 C          59.0989   93.2523   -1.6052 C.ar    1  UNL1        0.0013
     33 C          59.0240   93.5712   -3.0689 C.ar    1  UNL1        0.0191
@<TRIPOS>BOND
     1    10    11    2
     2    11    12   am
     3    12     1    1
     4     1     2   ar
     5     2     3   ar
     6     3     4   ar
     7     4     5   ar
     8     5     6   ar
     9     6     7   ar
    10     7    21    1
    11    21    22    2
    12    21    23    2
    13    21    24    1
    14    24    25   ar
    15    25    26   ar
    16    26    27   ar
    17    27    28   ar
    18    28    29   ar
    19    29    30   ar
    20    30    31   ar
    21    31    32   ar
    22    32    33   ar
    23     7     8   ar
    24     8     9   ar
    25    11    14    1
    26    14    15    1
    27    15    16    1
    28    16    17    1
    29    17    18    1
    30    18    19    1
    31     9     1   ar
    32    19    14    1
    33     8     4   ar
    34    33    24   ar
    35    33    28   ar
    36    12    13    1
    37    18    20    1
@<TRIPOS>MOLECULE
*****
 33 37 0 0 0
SMALL
GASTEIGER

@<TRIPOS>ATOM
      1 C          61.5306   85.7716   10.0807 C.ar    1  UNL1        0.0519
      2 C          60.5598   85.8007    8.9376 C.ar    1  UNL1        0.0148
      3 C          60.1067   87.1139    8.3718 C.ar    1  UNL1        0.0044
      4 C          60.6243   88.3979    8.9491 C.ar    1  UNL1        0.0402
      5 C          60.3598   89.8331    8.6022 C.ar    1  UNL1        0.1235
      6 N          61.1671   90.6909    9.5309 N.ar    1  UNL1       -0.1468
      7 N          61.9306   89.7859   10.4518 N.ar    1  UNL1       -0.1274
      8 C          61.5952   88.3688   10.0922 C.ar    1  UNL1        0.1053
      9 C          62.0483   87.0556   10.6580 C.ar    1  UNL1        0.0354
     10 O          62.2523   85.5583   12.9849 O.2     1  UNL1       -0.2747
     11 C          62.3445   84.3517   12.0985 C.2     1  UNL1        0.2270
     12 N          61.9837   84.4583   10.6465 N.am    1  UNL1       -0.2838
     13 H          62.0443   83.6664   10.0648 H       1  UNL1        0.1549
     14 C          62.7976   83.0383   12.6643 C.3     1  UNL1        0.0925
     15 C          62.5332   81.7670   11.9134 C.3     1  UNL1        0.0119
     16 C          62.9863   80.4537   12.4790 C.3     1  UNL1        0.0176
     17 C          63.7038   80.4118   13.7956 C.3     1  UNL1        0.0686
     18 N          63.9682   81.6831   14.5465 N.3     1  UNL1       -0.2971
     19 C          63.5151   82.9964   13.9809 C.3     1  UNL1        0.0777
     20 H          64.9787   81.7481   14.6688 H       1  UNL1        0.1233
     21 S          62.8654   90.2215   11.5410 S.O2    1  UNL1        0.1006
     22 O          61.8149   89.9125   12.5661 O.2     1  UNL1       -0.1463
     23 O          63.9159   90.5305   10.5158 O.2     1  UNL1       -0.1463
     24 C          63.8002   90.6571   12.6302 C.ar    1  UNL1        0.1291
     25 C          63.8474   89.9012   13.9249 C.ar    1  UNL1        0.0204
     26 C          64.7823   90.3368   15.0141 C.ar    1  UNL1        0.0014
     27 C          65.6699   91.5284   14.8086 C.ar    1  UNL1        0.0001
     28 C          65.6227   92.2844   13.5138 C.ar    1  UNL1        0.0013
     29 C          66.5103   93.4759   13.3083 C.ar    1  UNL1        0.0000
     30 C          66.4631   94.2319   12.0137 C.ar    1  UNL1        0.0000
     31 C          65.5283   93.7963   10.9245 C.ar    1  UNL1        0.0000
     32 C          64.6407   92.6047   11.1299 C.ar    1  UNL1        0.0013
     33 C          64.6879   91.8488   12.4246 C.ar    1  UNL1        0.0191
@<TRIPOS>BOND
     1    10    11    2
     2    11    12   am
     3    12     1    1
     4     1     2   ar
     5     2     3   ar
     6     3     4   ar
     7     4     5   ar
     8     5     6   ar
     9     6     7   ar
    10     7    21    1
    11    21    22    2
    12    21    23    2
    13    21    24    1
    14    24    25   ar
    15    25    26   ar
    16    26    27   ar
    17    27    28   ar
    18    28    29   ar
    19    29    30   ar
    20    30    31   ar
    21    31    32   ar
    22    32    33   ar
    23     7     8   ar
    24     8     9   ar
    25    11    14    1
    26    14    15    1
    27    15    16    1
    28    16    17    1
    29    17    18    1
    30    18    19    1
    31     9     1   ar
    32    19    14    1
    33     8     4   ar
    34    33    24   ar
    35    33    28   ar
    36    12    13    1
    37    18    20    1
