@<TRIPOS>MOLECULE
*****
 31 35 0 0 0
SMALL
GASTEIGER

@<TRIPOS>ATOM
      1 C          62.7985   84.7065   15.2455 C.ar    1  UNL1        0.1845
      2 N          62.2245   84.6315   16.6293 N.ar    1  UNL1       -0.1274
      3 N          62.3346   85.9921   17.2511 N.ar    1  UNL1       -0.1316
      4 C          62.9766   86.9080   16.2516 C.ar    1  UNL1        0.1615
      5 N          63.2633   86.1134   15.0121 N.ar    1  UNL1       -0.2944
      6 C          63.9106   86.7737   13.8309 C.3     1  UNL1        0.1302
      7 C          64.2712   88.2286   13.8893 C.3     1  UNL1        0.1186
      8 N          63.9845   89.0231   15.1289 N.am    1  UNL1       -0.2688
      9 C          64.3451   90.4780   15.1873 C.2     1  UNL1        0.2493
     10 O          64.0584   91.2725   16.4269 O.2     1  UNL1       -0.2699
     11 C          63.3372   88.3628   16.3100 C.3     1  UNL1        0.1343
     12 C          63.0505   89.1574   17.5496 C.3     1  UNL1        0.0298
     13 C          64.9924   91.1382   14.0062 C.ar    1  UNL1        0.0536
     14 C          64.2027   91.3743   12.7529 C.ar    1  UNL1        0.0045
     15 C          64.8500   92.0345   11.5718 C.ar    1  UNL1        0.0006
     16 C          66.2870   92.4587   11.6439 C.ar    1  UNL1        0.0060
     17 C          67.0766   92.2227   12.8972 C.ar    1  UNL1        0.0006
     18 C          66.4294   91.5624   14.0783 C.ar    1  UNL1        0.0045
     19 C          66.9343   93.1190   10.4628 C.ar    1  UNL1        0.0295
     20 C          67.9173   92.4821    9.5257 C.ar    1  UNL1        0.0070
     21 C          68.3028   93.5016    8.4952 C.ar    1  UNL1        0.0075
     22 C          67.5581   94.7686    8.7953 C.ar    1  UNL1        0.0354
     23 S          66.7123   94.5322   10.0115 S.2     1  UNL1       -0.0864
     24 C          63.2561   82.3085   12.2279 C.ar    1  UNL1        0.0879
     25 N          63.3049   83.6820   12.8291 N.ar    1  UNL1       -0.2396
     26 C          62.8914   83.5735   14.2669 C.ar    1  UNL1        0.1237
     27 C          62.5870   82.1331   14.5544 C.ar    1  UNL1        0.0588
     28 S          62.8124   81.3513   13.2942 S.2     1  UNL1       -0.0701
     29 C          63.2277   80.6043   10.2671 C.3     1  UNL1        0.0069
     30 C          63.5919   81.9545   10.8096 C.3     1  UNL1        0.0466
     31 C          64.2921   82.9507    9.9336 C.3     1  UNL1        0.0069
@<TRIPOS>BOND
     1    29    30    1
     2    30    31    1
     3    30    24    1
     4    24    25   ar
     5    25    26   ar
     6    26     1    1
     7     1     2   ar
     8     2     3   ar
     9     3     4   ar
    10     4     5   ar
    11     5     6    1
    12     6     7    1
    13     7     8    1
    14     8     9   am
    15     9    10    2
    16     9    13    1
    17    13    14   ar
    18    14    15   ar
    19    15    16   ar
    20    16    19    1
    21    19    20   ar
    22    20    21   ar
    23    21    22   ar
    24    22    23   ar
    25    16    17   ar
    26    17    18   ar
    27     8    11    1
    28    11    12    1
    29    26    27   ar
    30    27    28   ar
    31    28    24   ar
    32     5     1   ar
    33    18    13   ar
    34    11     4    1
    35    23    19   ar
@<TRIPOS>MOLECULE
*****
 31 35 0 0 0
SMALL
GASTEIGER

@<TRIPOS>ATOM
      1 C          64.1527   90.9097   14.2968 C.ar    1  UNL1        0.1845
      2 N          64.0061   91.5360   15.6519 N.ar    1  UNL1       -0.1274
      3 N          63.6412   90.4545   16.6253 N.ar    1  UNL1       -0.1316
      4 C          63.5623   89.1599   15.8717 C.ar    1  UNL1        0.1615
      5 N          63.8784   89.4412   14.4327 N.ar    1  UNL1       -0.2944
      6 C          63.8756   88.3239   13.4319 C.3     1  UNL1        0.1302
      7 C          63.5568   86.9252   13.8702 C.3     1  UNL1        0.1186
      8 N          63.2407   86.6439   15.3093 N.am    1  UNL1       -0.2688
      9 C          62.9218   85.2453   15.7476 C.2     1  UNL1        0.2493
     10 O          62.6057   84.9640   17.1866 O.2     1  UNL1       -0.2699
     11 C          63.2434   87.7613   16.3101 C.3     1  UNL1        0.1343
     12 C          62.9273   87.4800   17.7491 C.3     1  UNL1        0.0298
     13 C          62.9191   84.1280   14.7468 C.ar    1  UNL1        0.0536
     14 C          62.0092   82.9511   14.9391 C.ar    1  UNL1        0.0045
     15 C          62.0064   81.8338   13.9382 C.ar    1  UNL1        0.0006
     16 C          62.9136   81.8934   12.7452 C.ar    1  UNL1        0.0060
     17 C          63.8235   83.0703   12.5529 C.ar    1  UNL1        0.0006
     18 C          63.8263   84.1876   13.5537 C.ar    1  UNL1        0.0045
     19 C          62.9109   80.7760   11.7443 C.ar    1  UNL1        0.0295
     20 C          63.1980   80.9053   10.2778 C.ar    1  UNL1        0.0070
     21 C          63.0852   79.5425    9.6614 C.ar    1  UNL1        0.0075
     22 C          62.7283   78.5708   10.7471 C.ar    1  UNL1        0.0354
     23 S          62.6205   79.3333   12.0345 S.2     1  UNL1       -0.0864
     24 C          65.5222   93.1787   11.4610 C.ar    1  UNL1        0.0879
     25 N          65.4663   92.7756   12.9049 N.ar    1  UNL1       -0.2396
     26 C          64.5107   91.6261   13.0285 C.ar    1  UNL1        0.1237
     27 C          63.9758   91.3187   11.6613 C.ar    1  UNL1        0.0588
     28 S          64.6009   92.2783   10.6925 S.2     1  UNL1       -0.0701
     29 C          67.3220   94.0016    9.7778 C.3     1  UNL1        0.0069
     30 C          66.3532   94.2875   10.8867 C.3     1  UNL1        0.0466
     31 C          66.2155   95.6822   11.4213 C.3     1  UNL1        0.0069
@<TRIPOS>BOND
     1    29    30    1
     2    30    31    1
     3    30    24    1
     4    24    25   ar
     5    25    26   ar
     6    26     1    1
     7     1     2   ar
     8     2     3   ar
     9     3     4   ar
    10     4     5   ar
    11     5     6    1
    12     6     7    1
    13     7     8    1
    14     8     9   am
    15     9    10    2
    16     9    13    1
    17    13    14   ar
    18    14    15   ar
    19    15    16   ar
    20    16    19    1
    21    19    20   ar
    22    20    21   ar
    23    21    22   ar
    24    22    23   ar
    25    16    17   ar
    26    17    18   ar
    27     8    11    1
    28    11    12    1
    29    26    27   ar
    30    27    28   ar
    31    28    24   ar
    32     5     1   ar
    33    18    13   ar
    34    11     4    1
    35    23    19   ar
