@<TRIPOS>MOLECULE
*****
 38 40 0 0 0
SMALL
GASTEIGER

@<TRIPOS>ATOM
      1 C          62.3527   86.5846   10.6830 C.3     1  UNL1        0.1811
      2 O          63.1202   86.4455   11.9642 O.3     1  UNL1       -0.3784
      3 H          62.9129   87.1919   12.5480 H       1  UNL1        0.2106
      4 C          61.5852   86.7236    9.4017 C.3     1  UNL1        0.4197
      5 F          60.8178   86.8626    8.1204 F       1  UNL1       -0.1676
      6 F          60.3466   87.0561   10.1797 F       1  UNL1       -0.1676
      7 F          62.8238   86.3911    8.6237 F       1  UNL1       -0.1676
      8 C          61.7413   87.8579   11.1875 C.3     1  UNL1        0.0807
      9 C          65.4205   93.1355   11.6491 C.2     1  UNL1        0.1857
     10 C          64.6361   92.2966   10.6844 C.2     1  UNL1        0.0359
     11 C          63.9155   91.0731   11.1682 C.2     1  UNL1        0.0095
     12 C          63.0693   90.0595   10.4564 C.2     1  UNL1        0.0124
     13 C          62.6102   89.0486   11.4652 C.2     1  UNL1        0.0568
     14 N          63.1726   89.4375   12.8002 N.2     1  UNL1       -0.2661
     15 C          63.9793   90.6887   12.6167 C.3     1  UNL1        0.1661
     16 C          64.7638   91.5278   13.5814 C.2     1  UNL1        0.1025
     17 N          65.4844   92.7511   13.0976 N.2     1  UNL1       -0.2281
     18 S          66.1411   94.3589   11.1653 S.O2    1  UNL1        0.0250
     19 O          66.1651   93.7951    9.7756 O.2     1  UNL1       -0.1672
     20 O          66.1171   94.9227   12.5552 O.2     1  UNL1       -0.1672
     21 C          67.2987   95.6783    9.2498 C.3     1  UNL1        0.0276
     22 C          66.8617   95.5823   10.6815 C.3     1  UNL1        0.1577
     23 C          62.9642   85.3112   10.1785 C.3     1  UNL1        0.0398
     24 C          62.9741   84.0883   11.0471 C.3     1  UNL1        0.0216
     25 C          61.6738   84.5142   11.6616 C.3     1  UNL1        0.0045
     26 C          64.2746   83.6623   10.4326 C.3     1  UNL1        0.0045
     27 C          62.9840   82.8655   11.9158 C.ar    1  UNL1       -0.0182
     28 C          62.5601   81.5416   11.3521 C.ar    1  UNL1       -0.0018
     29 C          62.5700   80.3188   12.2208 C.ar    1  UNL1        0.0293
     30 C          63.0038   80.4198   13.6531 C.ar    1  UNL1        0.1403
     31 F          63.0137   79.1970   14.5218 F       1  UNL1       -0.2042
     32 C          63.4278   81.7436   14.2168 C.ar    1  UNL1        0.0338
     33 C          63.4179   82.9665   13.3481 C.ar    1  UNL1        0.0514
     34 C          63.8418   84.2903   13.9117 C.2     1  UNL1        0.2425
     35 N          65.2802   84.7101   13.8399 N.am    1  UNL1       -0.3253
     36 O          62.8276   85.1944   14.5472 O.2     1  UNL1       -0.2704
     37 H          65.9459   84.1167   13.4228 H       1  UNL1        0.1453
     38 H          65.5585   85.5790   14.2098 H       1  UNL1        0.1453
@<TRIPOS>BOND
     1    21    22    1
     2    22    18    1
     3    18    19    2
     4    18    20    2
     5    18     9    1
     6     9    10    2
     7    10    11    1
     8    11    12    2
     9    12    13    1
    10    13     8    1
    11     8     1    1
    12     1     2    1
    13     1    23    1
    14    23    24    1
    15    24    25    1
    16    24    26    1
    17    24    27    1
    18    27    28   ar
    19    28    29   ar
    20    29    30   ar
    21    30    31    1
    22    30    32   ar
    23    32    33   ar
    24    33    34    1
    25    34    35   am
    26    34    36    2
    27     1     4    1
    28     4     5    1
    29     4     6    1
    30     4     7    1
    31    13    14    2
    32    14    15    1
    33    15    16    1
    34    16    17    2
    35    17     9    1
    36    15    11    1
    37    33    27   ar
    38     2     3    1
    39    35    37    1
    40    35    38    1
@<TRIPOS>MOLECULE
*****
 38 40 0 0 0
SMALL
GASTEIGER

@<TRIPOS>ATOM
      1 C          63.6007   87.1627   15.9774 C.3     1  UNL1        0.1811
      2 O          64.2702   87.3239   14.6448 O.3     1  UNL1       -0.3784
      3 H          64.1318   88.2275   14.3206 H       1  UNL1        0.2106
      4 C          62.9312   87.0015   17.3100 C.3     1  UNL1        0.4197
      5 F          62.2617   86.8403   18.6426 F       1  UNL1       -0.1676
      6 F          63.8860   85.8977   17.6562 F       1  UNL1       -0.1676
      7 F          61.9764   88.1053   16.9638 F       1  UNL1       -0.1676
      8 C          63.1370   88.5879   15.9168 C.3     1  UNL1        0.0807
      9 C          65.4548   92.5572   11.3918 C.2     1  UNL1        0.1857
     10 C          65.6945   92.0471   12.7818 C.2     1  UNL1        0.0359
     11 C          64.7541   91.0468   13.3862 C.2     1  UNL1        0.0095
     12 C          64.7340   90.3689   14.7242 C.2     1  UNL1        0.0124
     13 C          63.5415   89.4599   14.7653 C.2     1  UNL1        0.0568
     14 N          62.8246   89.5760   13.4529 N.2     1  UNL1       -0.2661
     15 C          63.5740   90.5568   12.6005 C.3     1  UNL1        0.1661
     16 C          63.3344   91.0670   11.2104 C.2     1  UNL1        0.1025
     17 N          64.2748   92.0672   10.6061 N.2     1  UNL1       -0.2281
     18 S          66.3952   93.5574   10.7875 S.O2    1  UNL1        0.0250
     19 O          67.5445   92.6256   11.0337 O.2     1  UNL1       -0.1672
     20 O          65.2459   94.4894   10.5413 O.2     1  UNL1       -0.1672
     21 C          67.6549   94.4974    8.7188 C.3     1  UNL1        0.0276
     22 C          67.3357   94.5576   10.1831 C.3     1  UNL1        0.1577
     23 C          64.0644   85.7375   16.0380 C.3     1  UNL1        0.0398
     24 C          63.8460   84.8272   14.8660 C.3     1  UNL1        0.0216
     25 C          65.2989   84.9370   14.5099 C.3     1  UNL1        0.0045
     26 C          62.3929   84.7174   15.2221 C.3     1  UNL1        0.0045
     27 C          63.6275   83.9169   13.6940 C.ar    1  UNL1       -0.0182
     28 C          64.0192   82.4717   13.7835 C.ar    1  UNL1       -0.0018
     29 C          63.8008   81.5614   12.6115 C.ar    1  UNL1        0.0293
     30 C          63.1907   82.0963   11.3499 C.ar    1  UNL1        0.1403
     31 F          62.9723   81.1860   10.1779 F       1  UNL1       -0.2042
     32 C          62.7990   83.5415   11.2603 C.ar    1  UNL1        0.0338
     33 C          63.0175   84.4518   12.4324 C.ar    1  UNL1        0.0514
     34 C          62.6258   85.8970   12.3428 C.2     1  UNL1        0.2425
     35 N          61.2109   86.2716   12.0145 N.am    1  UNL1       -0.3253
     36 O          63.6490   86.9675   12.5815 O.2     1  UNL1       -0.2704
     37 H          60.5393   85.5690   11.8578 H       1  UNL1        0.1453
     38 H          60.9538   87.2202   11.9557 H       1  UNL1        0.1453
@<TRIPOS>BOND
     1    21    22    1
     2    22    18    1
     3    18    19    2
     4    18    20    2
     5    18     9    1
     6     9    10    2
     7    10    11    1
     8    11    12    2
     9    12    13    1
    10    13     8    1
    11     8     1    1
    12     1     2    1
    13     1    23    1
    14    23    24    1
    15    24    25    1
    16    24    26    1
    17    24    27    1
    18    27    28   ar
    19    28    29   ar
    20    29    30   ar
    21    30    31    1
    22    30    32   ar
    23    32    33   ar
    24    33    34    1
    25    34    35   am
    26    34    36    2
    27     1     4    1
    28     4     5    1
    29     4     6    1
    30     4     7    1
    31    13    14    2
    32    14    15    1
    33    15    16    1
    34    16    17    2
    35    17     9    1
    36    15    11    1
    37    33    27   ar
    38     2     3    1
    39    35    37    1
    40    35    38    1
@<TRIPOS>MOLECULE
*****
 38 40 0 0 0
SMALL
GASTEIGER

@<TRIPOS>ATOM
      1 C          63.4670   87.3353   16.0719 C.3     1  UNL1        0.1811
      2 O          63.8589   87.4279   14.6270 O.3     1  UNL1       -0.3784
      3 H          63.8902   88.3598   14.3597 H       1  UNL1        0.2106
      4 C          63.0750   87.2425   17.5169 C.3     1  UNL1        0.4197
      5 F          62.6831   87.1497   18.9618 F       1  UNL1       -0.1676
      6 F          63.0972   88.7388   17.6190 F       1  UNL1       -0.1676
      7 F          63.0528   85.7462   17.4148 F       1  UNL1       -0.1676
      8 C          63.3798   88.8309   16.1442 C.3     1  UNL1        0.0807
      9 C          65.5240   92.6231   11.3877 C.2     1  UNL1        0.1857
     10 C          65.8290   92.1472   12.7771 C.2     1  UNL1        0.0359
     11 C          64.9039   91.1840   13.4600 C.2     1  UNL1        0.0095
     12 C          64.9436   90.5444   14.8162 C.2     1  UNL1        0.0124
     13 C          63.7378   89.6618   14.9478 C.2     1  UNL1        0.0568
     14 N          62.9531   89.7559   13.6730 N.2     1  UNL1       -0.2661
     15 C          63.6737   90.6967   12.7534 C.3     1  UNL1        0.1661
     16 C          63.3687   91.1727   11.3640 C.2     1  UNL1        0.1025
     17 N          64.2938   92.1358   10.6811 N.2     1  UNL1       -0.2281
     18 S          66.4491   93.5863   10.7048 S.O2    1  UNL1        0.0250
     19 O          67.5926   92.6392   10.9180 O.2     1  UNL1       -0.1672
     20 O          65.3057   94.5335   10.4916 O.2     1  UNL1       -0.1672
     21 C          67.2075   94.8415    8.5602 C.3     1  UNL1        0.0276
     22 C          67.3744   94.5495   10.0219 C.3     1  UNL1        0.1577
     23 C          63.5541   85.8396   15.9996 C.3     1  UNL1        0.0398
     24 C          63.4845   85.1476   14.6705 C.3     1  UNL1        0.0216
     25 C          62.0086   84.9495   14.8510 C.3     1  UNL1        0.0045
     26 C          64.9604   85.3457   14.4900 C.3     1  UNL1        0.0045
     27 C          63.4148   84.4556   13.3415 C.ar    1  UNL1       -0.0182
     28 C          63.3736   85.2620   12.0773 C.ar    1  UNL1       -0.0018
     29 C          63.3039   84.5700   10.7483 C.ar    1  UNL1        0.0293
     30 C          63.2754   83.0717   10.6834 C.ar    1  UNL1        0.1403
     31 F          63.2057   82.3797    9.3544 F       1  UNL1       -0.2042
     32 C          63.3166   82.2653   11.9476 C.ar    1  UNL1        0.0338
     33 C          63.3863   82.9573   13.2767 C.ar    1  UNL1        0.0514
     34 C          63.4275   82.1510   14.5408 C.2     1  UNL1        0.2425
     35 N          62.3017   81.2163   14.8712 N.am    1  UNL1       -0.3253
     36 O          64.5943   82.2793   15.4746 O.2     1  UNL1       -0.2704
     37 H          61.5359   81.1321   14.2583 H       1  UNL1        0.1453
     38 H          62.3287   80.6870   15.7009 H       1  UNL1        0.1453
@<TRIPOS>BOND
     1    21    22    1
     2    22    18    1
     3    18    19    2
     4    18    20    2
     5    18     9    1
     6     9    10    2
     7    10    11    1
     8    11    12    2
     9    12    13    1
    10    13     8    1
    11     8     1    1
    12     1     2    1
    13     1    23    1
    14    23    24    1
    15    24    25    1
    16    24    26    1
    17    24    27    1
    18    27    28   ar
    19    28    29   ar
    20    29    30   ar
    21    30    31    1
    22    30    32   ar
    23    32    33   ar
    24    33    34    1
    25    34    35   am
    26    34    36    2
    27     1     4    1
    28     4     5    1
    29     4     6    1
    30     4     7    1
    31    13    14    2
    32    14    15    1
    33    15    16    1
    34    16    17    2
    35    17     9    1
    36    15    11    1
    37    33    27   ar
    38     2     3    1
    39    35    37    1
    40    35    38    1
@<TRIPOS>MOLECULE
*****
 38 40 0 0 0
SMALL
GASTEIGER

@<TRIPOS>ATOM
      1 C          62.3916   86.5966   10.7456 C.3     1  UNL1        0.1811
      2 O          63.1199   86.3968   12.0415 O.3     1  UNL1       -0.3784
      3 H          62.9164   87.1300   12.6432 H       1  UNL1        0.2106
      4 C          61.6632   86.7964    9.4495 C.3     1  UNL1        0.4197
      5 F          60.9349   86.9962    8.1536 F       1  UNL1       -0.1676
      6 F          62.9060   86.4288    8.6944 F       1  UNL1       -0.1676
      7 F          60.4205   87.1641   10.2047 F       1  UNL1       -0.1676
      8 C          61.8002   87.8697   11.2742 C.3     1  UNL1        0.0807
      9 C          65.7667   92.2533   13.8539 C.2     1  UNL1        0.1857
     10 C          65.1198   90.9228   14.1015 C.2     1  UNL1        0.0359
     11 C          64.2111   90.3266   13.0676 C.2     1  UNL1        0.0095
     12 C          63.4379   89.0418   13.0319 C.2     1  UNL1        0.0124
     13 C          62.6983   88.9821   11.7282 C.2     1  UNL1        0.0568
     14 N          63.0145   90.2299   10.9582 N.2     1  UNL1       -0.2661
     15 C          63.9495   91.0609   11.7860 C.3     1  UNL1        0.1661
     16 C          64.5965   92.3914   11.5384 C.2     1  UNL1        0.1025
     17 N          65.5051   92.9876   12.5723 N.2     1  UNL1       -0.2281
     18 S          66.6753   92.8494   14.8878 S.O2    1  UNL1        0.0250
     19 O          65.6071   92.6759   15.9265 O.2     1  UNL1       -0.1672
     20 O          67.7435   93.0230   13.8491 O.2     1  UNL1       -0.1672
     21 C          69.0682   93.4453   15.7057 C.3     1  UNL1        0.0276
     22 C          67.5839   93.4456   15.9218 C.3     1  UNL1        0.1577
     23 C          62.9830   85.3236   10.2170 C.3     1  UNL1        0.0398
     24 C          62.9498   84.0778   11.0518 C.3     1  UNL1        0.0216
     25 C          61.5868   84.4511   11.5547 C.3     1  UNL1        0.0045
     26 C          64.3128   83.7044   10.5489 C.3     1  UNL1        0.0045
     27 C          62.9165   82.8320   11.8867 C.ar    1  UNL1       -0.0182
     28 C          62.6745   81.5011   11.2386 C.ar    1  UNL1       -0.0018
     29 C          62.6412   80.2554   12.0735 C.ar    1  UNL1        0.0293
     30 C          62.8501   80.3406   13.5565 C.ar    1  UNL1        0.1403
     31 F          62.8168   79.0949   14.3914 F       1  UNL1       -0.2042
     32 C          63.0921   81.6715   14.2046 C.ar    1  UNL1        0.0338
     33 C          63.1253   82.9173   13.3696 C.ar    1  UNL1        0.0514
     34 C          63.3674   84.2482   14.0177 C.2     1  UNL1        0.2425
     35 N          64.7378   84.8577   13.9900 N.am    1  UNL1       -0.3253
     36 O          62.2392   84.9697   14.6933 O.2     1  UNL1       -0.2704
     37 H          65.4783   84.3842   13.5466 H       1  UNL1        0.1453
     38 H          64.8967   85.7313   14.4154 H       1  UNL1        0.1453
@<TRIPOS>BOND
     1    21    22    1
     2    22    18    1
     3    18    19    2
     4    18    20    2
     5    18     9    1
     6     9    10    2
     7    10    11    1
     8    11    12    2
     9    12    13    1
    10    13     8    1
    11     8     1    1
    12     1     2    1
    13     1    23    1
    14    23    24    1
    15    24    25    1
    16    24    26    1
    17    24    27    1
    18    27    28   ar
    19    28    29   ar
    20    29    30   ar
    21    30    31    1
    22    30    32   ar
    23    32    33   ar
    24    33    34    1
    25    34    35   am
    26    34    36    2
    27     1     4    1
    28     4     5    1
    29     4     6    1
    30     4     7    1
    31    13    14    2
    32    14    15    1
    33    15    16    1
    34    16    17    2
    35    17     9    1
    36    15    11    1
    37    33    27   ar
    38     2     3    1
    39    35    37    1
    40    35    38    1
@<TRIPOS>MOLECULE
*****
 38 40 0 0 0
SMALL
GASTEIGER

@<TRIPOS>ATOM
      1 C          61.3320   88.1734    9.1917 C.3     1  UNL1        0.1811
      2 O          62.7114   88.1713    9.7811 O.3     1  UNL1       -0.3784
      3 H          62.8607   89.0031   10.2573 H       1  UNL1        0.2106
      4 C          59.9527   88.1753    8.6022 C.3     1  UNL1        0.4197
      5 F          58.5734   88.1773    8.0128 F       1  UNL1       -0.1676
      6 F          59.4562   88.9802    9.7665 F       1  UNL1       -0.1676
      7 F          60.4491   87.3705    7.4379 F       1  UNL1       -0.1676
      8 C          61.0893   89.5383    9.7644 C.3     1  UNL1        0.0807
      9 C          65.6526   92.3174   13.3777 C.2     1  UNL1        0.1857
     10 C          64.5102   91.3463   13.4200 C.2     1  UNL1        0.0359
     11 C          63.7287   91.0529   12.1736 C.2     1  UNL1        0.0095
     12 C          62.5608   90.1491   11.9107 C.2     1  UNL1        0.0124
     13 C          62.2001   90.2683   10.4596 C.2     1  UNL1        0.0568
     14 N          63.1450   91.2457    9.8257 N.2     1  UNL1       -0.2661
     15 C          64.0898   91.7306   10.8850 C.3     1  UNL1        0.1661
     16 C          65.2323   92.7017   10.8429 C.2     1  UNL1        0.1025
     17 N          66.0137   92.9951   12.0892 N.2     1  UNL1       -0.2281
     18 S          66.4340   92.6107   14.6240 S.O2    1  UNL1        0.0250
     19 O          67.6729   92.8062   13.8013 O.2     1  UNL1       -0.1672
     20 O          65.1951   92.4153   15.4468 O.2     1  UNL1       -0.1672
     21 C          68.6388   92.4457   15.9885 C.3     1  UNL1        0.0276
     22 C          67.2155   92.9041   15.8704 C.3     1  UNL1        0.1577
     23 C          61.5748   86.8085    8.6190 C.3     1  UNL1        0.0398
     24 C          62.2393   85.7528    9.4521 C.3     1  UNL1        0.0216
     25 C          63.4404   85.8008    8.5549 C.3     1  UNL1        0.0045
     26 C          61.0381   85.7048   10.3493 C.3     1  UNL1        0.0045
     27 C          62.9038   84.6972   10.2852 C.ar    1  UNL1       -0.0182
     28 C          63.3431   83.4095    9.6536 C.ar    1  UNL1       -0.0018
     29 C          64.0076   82.3539   10.4866 C.ar    1  UNL1        0.0293
     30 C          64.2328   82.5859   11.9514 C.ar    1  UNL1        0.1403
     31 F          64.8973   81.5303   12.7845 F       1  UNL1       -0.2042
     32 C          63.7935   83.8736   12.5831 C.ar    1  UNL1        0.0338
     33 C          63.1290   84.9292   11.7499 C.ar    1  UNL1        0.0514
     34 C          62.6896   86.2169   12.3815 C.2     1  UNL1        0.2425
     35 N          63.6446   86.9977   13.2350 N.am    1  UNL1       -0.3253
     36 O          61.2954   86.7236   12.1597 O.2     1  UNL1       -0.2704
     37 H          64.5597   86.6651   13.3805 H       1  UNL1        0.1453
     38 H          63.3563   87.8429   13.6495 H       1  UNL1        0.1453
@<TRIPOS>BOND
     1    21    22    1
     2    22    18    1
     3    18    19    2
     4    18    20    2
     5    18     9    1
     6     9    10    2
     7    10    11    1
     8    11    12    2
     9    12    13    1
    10    13     8    1
    11     8     1    1
    12     1     2    1
    13     1    23    1
    14    23    24    1
    15    24    25    1
    16    24    26    1
    17    24    27    1
    18    27    28   ar
    19    28    29   ar
    20    29    30   ar
    21    30    31    1
    22    30    32   ar
    23    32    33   ar
    24    33    34    1
    25    34    35   am
    26    34    36    2
    27     1     4    1
    28     4     5    1
    29     4     6    1
    30     4     7    1
    31    13    14    2
    32    14    15    1
    33    15    16    1
    34    16    17    2
    35    17     9    1
    36    15    11    1
    37    33    27   ar
    38     2     3    1
    39    35    37    1
    40    35    38    1
@<TRIPOS>MOLECULE
*****
 38 40 0 0 0
SMALL
GASTEIGER

@<TRIPOS>ATOM
      1 C          64.9144   91.5787   14.6309 C.3     1  UNL1        0.1811
      2 O          63.5125   91.6089   14.0981 O.3     1  UNL1       -0.3784
      3 H          63.0399   90.8123   14.3862 H       1  UNL1        0.2106
      4 C          66.3163   91.5485   15.1637 C.3     1  UNL1        0.4197
      5 F          67.7181   91.5183   15.6965 F       1  UNL1       -0.1676
      6 F          65.9600   92.6104   16.1614 F       1  UNL1       -0.1676
      7 F          66.6726   90.4866   14.1660 F       1  UNL1       -0.1676
      8 C          64.6348   90.2615   15.2918 C.3     1  UNL1        0.0807
      9 C          63.0590   84.7775   12.2842 C.2     1  UNL1        0.1857
     10 C          63.7258   85.3288   13.5095 C.2     1  UNL1        0.0359
     11 C          63.8151   86.8125   13.7114 C.2     1  UNL1        0.0095
     12 C          64.4088   87.6418   14.8115 C.2     1  UNL1        0.0124
     13 C          64.1982   89.0866   14.4678 C.2     1  UNL1        0.0568
     14 N          63.4745   89.1503   13.1555 N.2     1  UNL1       -0.2661
     15 C          63.2377   87.7448   12.6880 C.3     1  UNL1        0.1661
     16 C          62.5709   87.1935   11.4627 C.2     1  UNL1        0.1025
     17 N          62.4816   85.7098   11.2608 N.2     1  UNL1       -0.2281
     18 S          62.9696   83.2939   12.0823 S.O2    1  UNL1        0.0250
     19 O          63.4425   83.4578   10.6683 O.2     1  UNL1       -0.1672
     20 O          62.4967   83.1299   13.4964 O.2     1  UNL1       -0.1672
     21 C          62.5132   80.9177   13.0286 C.3     1  UNL1        0.0276
     22 C          62.8803   81.8102   11.8803 C.3     1  UNL1        0.1577
     23 C          65.1939   92.8959   13.9700 C.3     1  UNL1        0.0398
     24 C          65.9587   92.9406   12.6803 C.3     1  UNL1        0.0216
     25 C          67.1133   93.5862   13.3874 C.3     1  UNL1        0.0045
     26 C          64.8041   92.2948   11.9732 C.3     1  UNL1        0.0045
     27 C          66.7235   92.9853   11.3907 C.ar    1  UNL1       -0.0182
     28 C          67.5734   91.8189   10.9820 C.ar    1  UNL1       -0.0018
     29 C          68.3382   91.8636    9.6924 C.ar    1  UNL1        0.0293
     30 C          68.2531   93.0747    8.8115 C.ar    1  UNL1        0.1403
     31 F          69.0178   93.1195    7.5219 F       1  UNL1       -0.2042
     32 C          67.4031   94.2411    9.2202 C.ar    1  UNL1        0.0338
     33 C          66.6383   94.1964   10.5099 C.ar    1  UNL1        0.0514
     34 C          65.7883   95.3628   10.9187 C.2     1  UNL1        0.2425
     35 N          64.6040   95.7559   10.0863 N.am    1  UNL1       -0.3253
     36 O          66.1227   96.1360   12.1597 O.2     1  UNL1       -0.2704
     37 H          64.3845   95.2484    9.2717 H       1  UNL1        0.1453
     38 H          64.0461   96.5215   10.3545 H       1  UNL1        0.1453
@<TRIPOS>BOND
     1    21    22    1
     2    22    18    1
     3    18    19    2
     4    18    20    2
     5    18     9    1
     6     9    10    2
     7    10    11    1
     8    11    12    2
     9    12    13    1
    10    13     8    1
    11     8     1    1
    12     1     2    1
    13     1    23    1
    14    23    24    1
    15    24    25    1
    16    24    26    1
    17    24    27    1
    18    27    28   ar
    19    28    29   ar
    20    29    30   ar
    21    30    31    1
    22    30    32   ar
    23    32    33   ar
    24    33    34    1
    25    34    35   am
    26    34    36    2
    27     1     4    1
    28     4     5    1
    29     4     6    1
    30     4     7    1
    31    13    14    2
    32    14    15    1
    33    15    16    1
    34    16    17    2
    35    17     9    1
    36    15    11    1
    37    33    27   ar
    38     2     3    1
    39    35    37    1
    40    35    38    1
@<TRIPOS>MOLECULE
*****
 38 40 0 0 0
SMALL
GASTEIGER

@<TRIPOS>ATOM
      1 C          61.1427   89.4155   11.0734 C.3     1  UNL1        0.1811
      2 O          62.5272   89.0439   10.6318 O.3     1  UNL1       -0.3784
      3 H          63.0642   89.8466   10.5417 H       1  UNL1        0.2106
      4 C          59.7581   89.7870   11.5150 C.3     1  UNL1        0.4197
      5 F          58.3736   90.1586   11.9565 F       1  UNL1       -0.1676
      6 F          59.7814   88.6764   12.5228 F       1  UNL1       -0.1676
      7 F          59.7348   90.8977   10.5071 F       1  UNL1       -0.1676
      8 C          61.5340   90.8635   11.0818 C.3     1  UNL1        0.0807
      9 C          67.1796   92.4267   13.7811 C.2     1  UNL1        0.1857
     10 C          65.8040   91.9104   14.0827 C.2     1  UNL1        0.0359
     11 C          64.8122   91.7255   12.9727 C.2     1  UNL1        0.0095
     12 C          63.3936   91.2381   12.9650 C.2     1  UNL1        0.0124
     13 C          62.9009   91.2683   11.5486 C.2     1  UNL1        0.0568
     14 N          64.0148   91.7743   10.6809 N.2     1  UNL1       -0.2661
     15 C          65.1961   92.0569   11.5610 C.3     1  UNL1        0.1661
     16 C          66.5718   92.5732   11.2594 C.2     1  UNL1        0.1025
     17 N          67.5636   92.7581   12.3695 N.2     1  UNL1       -0.2281
     18 S          68.1714   92.6115   14.8912 S.O2    1  UNL1        0.0250
     19 O          67.0489   92.8796   15.8494 O.2     1  UNL1       -0.1672
     20 O          69.2939   92.3435   13.9330 O.2     1  UNL1       -0.1672
     21 C          69.6971   94.1637   16.3100 C.3     1  UNL1        0.0276
     22 C          69.1631   92.7964   16.0013 C.3     1  UNL1        0.1577
     23 C          60.7514   87.9675   11.0649 C.3     1  UNL1        0.0398
     24 C          61.0905   87.1057    9.8849 C.3     1  UNL1        0.0216
     25 C          61.2855   85.9319   10.7981 C.3     1  UNL1        0.0045
     26 C          60.8955   88.2796    8.9716 C.3     1  UNL1        0.0045
     27 C          61.4296   86.2440    8.7049 C.ar    1  UNL1       -0.0182
     28 C          62.7313   85.4994    8.6693 C.ar    1  UNL1       -0.0018
     29 C          63.0704   84.6377    7.4894 C.ar    1  UNL1        0.0293
     30 C          62.1079   84.5205    6.3449 C.ar    1  UNL1        0.1403
     31 F          62.4470   83.6588    5.1649 F       1  UNL1       -0.2042
     32 C          60.8062   85.2651    6.3804 C.ar    1  UNL1        0.0338
     33 C          60.4671   86.1269    7.5605 C.ar    1  UNL1        0.0514
     34 C          59.1654   86.8715    7.5960 C.2     1  UNL1        0.2425
     35 N          58.9986   88.1290    6.7955 N.am    1  UNL1       -0.3253
     36 O          58.0306   86.3585    8.4320 O.2     1  UNL1       -0.2704
     37 H          59.7435   88.4657    6.2467 H       1  UNL1        0.1453
     38 H          58.1443   88.6177    6.8188 H       1  UNL1        0.1453
@<TRIPOS>BOND
     1    21    22    1
     2    22    18    1
     3    18    19    2
     4    18    20    2
     5    18     9    1
     6     9    10    2
     7    10    11    1
     8    11    12    2
     9    12    13    1
    10    13     8    1
    11     8     1    1
    12     1     2    1
    13     1    23    1
    14    23    24    1
    15    24    25    1
    16    24    26    1
    17    24    27    1
    18    27    28   ar
    19    28    29   ar
    20    29    30   ar
    21    30    31    1
    22    30    32   ar
    23    32    33   ar
    24    33    34    1
    25    34    35   am
    26    34    36    2
    27     1     4    1
    28     4     5    1
    29     4     6    1
    30     4     7    1
    31    13    14    2
    32    14    15    1
    33    15    16    1
    34    16    17    2
    35    17     9    1
    36    15    11    1
    37    33    27   ar
    38     2     3    1
    39    35    37    1
    40    35    38    1
@<TRIPOS>MOLECULE
*****
 38 40 0 0 0
SMALL
GASTEIGER

@<TRIPOS>ATOM
      1 C          61.3446   89.1552   10.3847 C.3     1  UNL1        0.1811
      2 O          62.5264   88.3818    9.8794 O.3     1  UNL1       -0.3784
      3 H          63.1559   88.9899    9.4613 H       1  UNL1        0.2106
      4 C          60.1628   89.9285   10.8900 C.3     1  UNL1        0.4197
      5 F          58.9810   90.7018   11.3952 F       1  UNL1       -0.1676
      6 F          60.5844   89.6502   12.3023 F       1  UNL1       -0.1676
      7 F          59.7411   90.2068    9.4777 F       1  UNL1       -0.1676
      8 C          61.9593   90.4259    9.8775 C.3     1  UNL1        0.0807
      9 C          66.7686   92.6236   13.5713 C.2     1  UNL1        0.1857
     10 C          65.6003   91.6831   13.5514 C.2     1  UNL1        0.0359
     11 C          64.7531   91.5654   12.3191 C.2     1  UNL1        0.0095
     12 C          63.5471   90.7301   12.0062 C.2     1  UNL1        0.0124
     13 C          63.1230   91.0368   10.6005 C.2     1  UNL1        0.0568
     14 N          64.0667   92.0616   10.0447 N.2     1  UNL1       -0.2661
     15 C          65.0742   92.3884   11.1068 C.3     1  UNL1        0.1661
     16 C          66.2426   93.3289   11.1268 C.2     1  UNL1        0.1025
     17 N          67.0898   93.4465   12.3590 N.2     1  UNL1       -0.2281
     18 S          67.6158   92.7412   14.8036 S.O2    1  UNL1        0.0250
     19 O          68.8455   92.4902   13.9821 O.2     1  UNL1       -0.1672
     20 O          66.3861   92.9922   15.6251 O.2     1  UNL1       -0.1672
     21 C          69.2882   94.0904   16.2639 C.3     1  UNL1        0.0276
     22 C          68.4630   92.8588   16.0358 C.3     1  UNL1        0.1577
     23 C          60.7299   87.8844   10.8918 C.3     1  UNL1        0.0398
     24 C          61.5716   86.6519   11.0422 C.3     1  UNL1        0.0216
     25 C          62.4907   87.3926   11.9677 C.3     1  UNL1        0.0045
     26 C          60.6525   85.9113   10.1166 C.3     1  UNL1        0.0045
     27 C          62.4133   85.4195   11.1926 C.ar    1  UNL1       -0.0182
     28 C          62.5947   84.7955   12.5445 C.ar    1  UNL1       -0.0018
     29 C          63.4364   83.5631   12.6949 C.ar    1  UNL1        0.0293
     30 C          64.0968   82.9546   11.4933 C.ar    1  UNL1        0.1403
     31 F          64.9385   81.7222   11.6437 F       1  UNL1       -0.2042
     32 C          63.9155   83.5787   10.1414 C.ar    1  UNL1        0.0338
     33 C          63.0737   84.8112    9.9910 C.ar    1  UNL1        0.0514
     34 C          62.8924   85.4352    8.6391 C.2     1  UNL1        0.2425
     35 N          61.9365   84.8285    7.6551 N.am    1  UNL1       -0.3253
     36 O          63.6669   86.6659    8.2712 O.2     1  UNL1       -0.2704
     37 H          61.4281   84.0207    7.8966 H       1  UNL1        0.1453
     38 H          61.8174   85.2381    6.7678 H       1  UNL1        0.1453
@<TRIPOS>BOND
     1    21    22    1
     2    22    18    1
     3    18    19    2
     4    18    20    2
     5    18     9    1
     6     9    10    2
     7    10    11    1
     8    11    12    2
     9    12    13    1
    10    13     8    1
    11     8     1    1
    12     1     2    1
    13     1    23    1
    14    23    24    1
    15    24    25    1
    16    24    26    1
    17    24    27    1
    18    27    28   ar
    19    28    29   ar
    20    29    30   ar
    21    30    31    1
    22    30    32   ar
    23    32    33   ar
    24    33    34    1
    25    34    35   am
    26    34    36    2
    27     1     4    1
    28     4     5    1
    29     4     6    1
    30     4     7    1
    31    13    14    2
    32    14    15    1
    33    15    16    1
    34    16    17    2
    35    17     9    1
    36    15    11    1
    37    33    27   ar
    38     2     3    1
    39    35    37    1
    40    35    38    1
@<TRIPOS>MOLECULE
*****
 38 40 0 0 0
SMALL
GASTEIGER

@<TRIPOS>ATOM
      1 C          61.2479   89.2942   10.6417 C.3     1  UNL1        0.1811
      2 O          62.4232   88.6641    9.9550 O.3     1  UNL1       -0.3784
      3 H          62.9834   89.3571    9.5718 H       1  UNL1        0.2106
      4 C          60.0725   89.9242   11.3285 C.3     1  UNL1        0.4197
      5 F          58.8971   90.5542   12.0152 F       1  UNL1       -0.1676
      6 F          60.5637   89.4038   12.6467 F       1  UNL1       -0.1676
      7 F          59.5812   90.4446   10.0102 F       1  UNL1       -0.1676
      8 C          61.7512   90.6535   10.2561 C.3     1  UNL1        0.0807
      9 C          66.8852   92.6363   13.6197 C.2     1  UNL1        0.1857
     10 C          65.6445   91.7973   13.7011 C.2     1  UNL1        0.0359
     11 C          64.7358   91.6849   12.5130 C.2     1  UNL1        0.0095
     12 C          63.4529   90.9379   12.2977 C.2     1  UNL1        0.0124
     13 C          62.9922   91.2028   10.8950 C.2     1  UNL1        0.0568
     14 N          63.9902   92.1135   10.2434 N.2     1  UNL1       -0.2661
     15 C          65.0678   92.4114   11.2434 C.3     1  UNL1        0.1661
     16 C          66.3086   93.2505   11.1619 C.2     1  UNL1        0.1025
     17 N          67.2173   93.3629   12.3501 N.2     1  UNL1       -0.2281
     18 S          67.7939   92.7488   14.8078 S.O2    1  UNL1        0.0250
     19 O          68.9748   92.4488   13.9330 O.2     1  UNL1       -0.1672
     20 O          66.6129   93.0488   15.6826 O.2     1  UNL1       -0.1672
     21 C          69.4530   94.1352   16.2483 C.3     1  UNL1        0.0276
     22 C          68.7026   92.8612   15.9959 C.3     1  UNL1        0.1577
     23 C          60.7445   87.9348   11.0273 C.3     1  UNL1        0.0398
     24 C          61.6058   86.7263   10.8088 C.3     1  UNL1        0.0216
     25 C          60.5401   86.1236    9.9421 C.3     1  UNL1        0.0045
     26 C          62.6715   87.3290   11.6754 C.3     1  UNL1        0.0045
     27 C          62.4669   85.5178   10.5902 C.ar    1  UNL1       -0.0182
     28 C          62.7474   85.0387    9.1967 C.ar    1  UNL1       -0.0018
     29 C          63.6086   83.8302    8.9781 C.ar    1  UNL1        0.0293
     30 C          64.1894   83.1007   10.1531 C.ar    1  UNL1        0.1403
     31 F          65.0505   81.8922    9.9346 F       1  UNL1       -0.2042
     32 C          63.9089   83.5797   11.5466 C.ar    1  UNL1        0.0338
     33 C          63.0477   84.7883   11.7651 C.ar    1  UNL1        0.0514
     34 C          62.7672   85.2673   13.1587 C.2     1  UNL1        0.2425
     35 N          61.6234   84.6859   13.9357 N.am    1  UNL1       -0.3253
     36 O          63.6305   86.3278   13.7752 O.2     1  UNL1       -0.2704
     37 H          61.0568   83.9898   13.5310 H       1  UNL1        0.1453
     38 H          61.4394   85.0003   14.8503 H       1  UNL1        0.1453
@<TRIPOS>BOND
     1    21    22    1
     2    22    18    1
     3    18    19    2
     4    18    20    2
     5    18     9    1
     6     9    10    2
     7    10    11    1
     8    11    12    2
     9    12    13    1
    10    13     8    1
    11     8     1    1
    12     1     2    1
    13     1    23    1
    14    23    24    1
    15    24    25    1
    16    24    26    1
    17    24    27    1
    18    27    28   ar
    19    28    29   ar
    20    29    30   ar
    21    30    31    1
    22    30    32   ar
    23    32    33   ar
    24    33    34    1
    25    34    35   am
    26    34    36    2
    27     1     4    1
    28     4     5    1
    29     4     6    1
    30     4     7    1
    31    13    14    2
    32    14    15    1
    33    15    16    1
    34    16    17    2
    35    17     9    1
    36    15    11    1
    37    33    27   ar
    38     2     3    1
    39    35    37    1
    40    35    38    1
