@<TRIPOS>MOLECULE
*****
 37 41 0 0 0
SMALL
GASTEIGER

@<TRIPOS>ATOM
      1 C          63.4553   89.9530   12.3119 C.ar    1  UNL1        0.1391
      2 C          64.0033   89.1751   13.4716 C.ar    1  UNL1        0.0369
      3 C          63.8390   87.6850   13.5198 C.ar    1  UNL1        0.0031
      4 C          63.1267   86.9726   12.4084 C.ar    1  UNL1        0.0002
      5 C          62.5787   87.7504   11.2488 C.ar    1  UNL1        0.0031
      6 C          62.7430   89.2407   11.2006 C.ar    1  UNL1        0.0369
      7 C          62.9623   85.4824   12.4566 C.ar    1  UNL1        0.0000
      8 C          62.4487   84.8244   13.7029 C.ar    1  UNL1        0.0000
      9 C          62.2844   83.3343   13.7511 C.ar    1  UNL1        0.0000
     10 C          62.6338   82.5020   12.5530 C.ar    1  UNL1        0.0011
     11 C          62.4695   81.0118   12.6013 C.ar    1  UNL1        0.0140
     12 C          62.8188   80.1796   11.4032 C.ar    1  UNL1        0.0011
     13 C          63.3325   80.8376   10.1569 C.ar    1  UNL1        0.0000
     14 C          63.4967   82.3278   10.1087 C.ar    1  UNL1        0.0000
     15 C          63.1474   83.1600   11.3067 C.ar    1  UNL1        0.0000
     16 C          63.3117   84.6502   11.2585 C.ar    1  UNL1        0.0000
     17 C          61.9559   80.3538   13.8475 C.2     1  UNL1        0.0729
     18 O          60.5011   80.4485   14.2007 O.co2   1  UNL1       -0.5446
     19 O          62.8970   79.6011   14.7407 O.co2   1  UNL1       -0.5446
     20 O          63.6196   91.4432   12.2637 O.3     1  UNL1       -0.4705
     21 C          64.8951   92.0407   11.7479 C.3     1  UNL1        0.2364
     22 C          65.9130   92.8252   14.0918 C.ar    1  UNL1        0.1534
     23 O          66.7667   93.9714   14.5471 O.2     1  UNL1       -0.3580
     24 N          67.0742   94.8238   13.3516 N.ar    1  UNL1       -0.0775
     25 C          66.4105   94.2043   12.1576 C.ar    1  UNL1        0.1237
     26 C          65.6929   92.9691   12.6150 C.ar    1  UNL1        0.0749
     27 C          66.4565   94.7280   10.7528 C.ar    1  UNL1        0.0419
     28 C          67.1279   93.9286    9.6758 C.ar    1  UNL1        0.0600
     29 CL         67.7535   92.6052   10.0036 Cl      1  UNL1       -0.0822
     30 C          67.1738   94.4524    8.2710 C.ar    1  UNL1        0.0115
     31 C          66.5483   95.7757    7.9431 C.ar    1  UNL1        0.0017
     32 C          65.8768   96.5752    9.0202 C.ar    1  UNL1        0.0115
     33 C          65.8309   96.0514   10.4250 C.ar    1  UNL1        0.0600
     34 CL         65.1594   96.8509   11.5019 Cl      1  UNL1       -0.0822
     35 C          66.0326   90.3800   14.9617 C.3     1  UNL1        0.0080
     36 C          65.3740   91.7276   14.9608 C.3     1  UNL1        0.0600
     37 C          64.1765   91.9778   15.8287 C.3     1  UNL1        0.0080
@<TRIPOS>UNITY_ATOM_ATTR
18 1
charge -1
@<TRIPOS>BOND
     1    35    36    1
     2    36    37    1
     3    36    22    1
     4    22    23   ar
     5    23    24   ar
     6    24    25   ar
     7    25    27    1
     8    27    28   ar
     9    28    29    1
    10    28    30   ar
    11    30    31   ar
    12    31    32   ar
    13    32    33   ar
    14    33    34    1
    15    25    26   ar
    16    26    21    1
    17    21    20    1
    18    20     1    1
    19     1     2   ar
    20     2     3   ar
    21     3     4   ar
    22     4     7    1
    23     7     8   ar
    24     8     9   ar
    25     9    10   ar
    26    10    11   ar
    27    11    17    1
    28    17    18   ar
    29    17    19   ar
    30    11    12   ar
    31    12    13   ar
    32    13    14   ar
    33    14    15   ar
    34    15    16   ar
    35     4     5   ar
    36     5     6   ar
    37    26    22   ar
    38     6     1   ar
    39    33    27   ar
    40    16     7   ar
    41    15    10   ar
@<TRIPOS>MOLECULE
*****
 37 41 0 0 0
SMALL
GASTEIGER

@<TRIPOS>ATOM
      1 C          63.3520   89.7430   12.2525 C.ar    1  UNL1        0.1391
      2 C          63.8635   88.9144   13.3935 C.ar    1  UNL1        0.0369
      3 C          63.7360   87.4204   13.3518 C.ar    1  UNL1        0.0031
      4 C          63.0969   86.7550   12.1690 C.ar    1  UNL1        0.0002
      5 C          62.5854   87.5835   11.0281 C.ar    1  UNL1        0.0031
      6 C          62.7129   89.0776   11.0698 C.ar    1  UNL1        0.0369
      7 C          62.9694   85.2610   12.1273 C.ar    1  UNL1        0.0000
      8 C          63.2696   84.5177   10.8595 C.ar    1  UNL1        0.0000
      9 C          63.1421   83.0238   10.8178 C.ar    1  UNL1        0.0000
     10 C          62.7144   82.2730   12.0440 C.ar    1  UNL1        0.0011
     11 C          62.5869   80.7790   12.0023 C.ar    1  UNL1        0.0140
     12 C          62.1592   80.0283   13.2285 C.ar    1  UNL1        0.0011
     13 C          61.8590   80.7716   14.4964 C.ar    1  UNL1        0.0000
     14 C          61.9865   82.2656   14.5380 C.ar    1  UNL1        0.0000
     15 C          62.4142   83.0163   13.3118 C.ar    1  UNL1        0.0000
     16 C          62.5417   84.5102   13.3535 C.ar    1  UNL1        0.0000
     17 C          62.8871   80.0358   10.7345 C.2     1  UNL1        0.0729
     18 O          63.4246   80.7716    9.5430 O.co2   1  UNL1       -0.5446
     19 O          62.6498   78.5566   10.6581 O.co2   1  UNL1       -0.5446
     20 O          63.4795   91.2370   12.2943 O.3     1  UNL1       -0.4705
     21 C          64.7156   91.8993   11.7621 C.3     1  UNL1        0.2364
     22 C          65.7327   92.5586   14.1446 C.ar    1  UNL1        0.1534
     23 O          66.6608   93.6264   14.6429 O.2     1  UNL1       -0.3580
     24 N          67.0627   94.4744   13.4726 N.ar    1  UNL1       -0.0775
     25 C          66.3830   93.9306   12.2511 C.ar    1  UNL1        0.1237
     26 C          65.5610   92.7466   12.6663 C.ar    1  UNL1        0.0749
     27 C          66.5040   94.4752   10.8587 C.ar    1  UNL1        0.0419
     28 C          65.9628   95.8365   10.5361 C.ar    1  UNL1        0.0600
     29 CL         65.3006   96.6532   11.6059 Cl      1  UNL1       -0.0822
     30 C          66.0838   96.3811    9.1437 C.ar    1  UNL1        0.0115
     31 C          66.7460   95.5645    8.0739 C.ar    1  UNL1        0.0017
     32 C          67.2872   94.2032    8.3965 C.ar    1  UNL1        0.0115
     33 C          67.1662   93.6585    9.7889 C.ar    1  UNL1        0.0600
     34 CL         67.7074   92.2973   10.1114 Cl      1  UNL1       -0.0822
     35 C          65.6424   90.0961   14.9678 C.3     1  UNL1        0.0080
     36 C          65.0893   91.4903   14.9781 C.3     1  UNL1        0.0600
     37 C          63.8928   91.8162   15.8219 C.3     1  UNL1        0.0080
@<TRIPOS>UNITY_ATOM_ATTR
18 1
charge -1
@<TRIPOS>BOND
     1    35    36    1
     2    36    37    1
     3    36    22    1
     4    22    23   ar
     5    23    24   ar
     6    24    25   ar
     7    25    27    1
     8    27    28   ar
     9    28    29    1
    10    28    30   ar
    11    30    31   ar
    12    31    32   ar
    13    32    33   ar
    14    33    34    1
    15    25    26   ar
    16    26    21    1
    17    21    20    1
    18    20     1    1
    19     1     2   ar
    20     2     3   ar
    21     3     4   ar
    22     4     7    1
    23     7     8   ar
    24     8     9   ar
    25     9    10   ar
    26    10    11   ar
    27    11    17    1
    28    17    18   ar
    29    17    19   ar
    30    11    12   ar
    31    12    13   ar
    32    13    14   ar
    33    14    15   ar
    34    15    16   ar
    35     4     5   ar
    36     5     6   ar
    37    26    22   ar
    38     6     1   ar
    39    33    27   ar
    40    16     7   ar
    41    15    10   ar
@<TRIPOS>MOLECULE
*****
 37 41 0 0 0
SMALL
GASTEIGER

@<TRIPOS>ATOM
      1 C          64.2436   87.7460   14.1728 C.ar    1  UNL1        0.1391
      2 C          64.7637   86.5587   14.9277 C.ar    1  UNL1        0.0369
      3 C          64.5123   85.1729   14.4117 C.ar    1  UNL1        0.0031
      4 C          63.7409   84.9744   13.1407 C.ar    1  UNL1        0.0002
      5 C          63.2208   86.1616   12.3857 C.ar    1  UNL1        0.0031
      6 C          63.4722   87.5475   12.9017 C.ar    1  UNL1        0.0369
      7 C          63.4895   83.5885   12.6246 C.ar    1  UNL1        0.0000
      8 C          63.6255   83.2976   11.1594 C.ar    1  UNL1        0.0000
      9 C          63.3742   81.9118   10.6434 C.ar    1  UNL1        0.0000
     10 C          62.9867   80.8169   11.5927 C.ar    1  UNL1        0.0011
     11 C          62.7354   79.4310   11.0766 C.ar    1  UNL1        0.0140
     12 C          62.3480   78.3360   12.0258 C.ar    1  UNL1        0.0011
     13 C          62.2119   78.6270   13.4911 C.ar    1  UNL1        0.0000
     14 C          62.4633   80.0128   14.0071 C.ar    1  UNL1        0.0000
     15 C          62.8507   81.1077   13.0579 C.ar    1  UNL1        0.0000
     16 C          63.1021   82.4936   13.5738 C.ar    1  UNL1        0.0000
     17 C          62.8714   79.1401    9.6114 C.2     1  UNL1        0.0729
     18 O          64.0855   78.4240    9.0985 O.co2   1  UNL1       -0.5446
     19 O          61.7933   79.5654    8.6591 O.co2   1  UNL1       -0.5446
     20 O          64.4950   89.1318   14.6888 O.3     1  UNL1       -0.4705
     21 C          63.6959   90.2856   14.1596 C.3     1  UNL1        0.2364
     22 C          63.4820   91.0877   11.6187 C.ar    1  UNL1        0.1534
     23 O          64.3036   91.9484   10.7054 O.2     1  UNL1       -0.3580
     24 N          65.5004   92.4276   11.4723 N.ar    1  UNL1       -0.0775
     25 C          65.4184   91.8630   12.8596 C.ar    1  UNL1        0.1237
     26 C          64.1710   91.0349   12.9501 C.ar    1  UNL1        0.0749
     27 C          66.4098   92.0872   13.9627 C.ar    1  UNL1        0.0419
     28 C          65.9313   92.4116   15.3468 C.ar    1  UNL1        0.0600
     29 CL         64.4612   92.5118   15.6278 Cl      1  UNL1       -0.0822
     30 C          66.9227   92.6358   16.4498 C.ar    1  UNL1        0.0115
     31 C          68.3928   92.5356   16.1689 C.ar    1  UNL1        0.0017
     32 C          68.8713   92.2112   14.7847 C.ar    1  UNL1        0.0115
     33 C          67.8799   91.9870   13.6816 C.ar    1  UNL1        0.0600
     34 CL         68.3585   91.6626   12.2976 Cl      1  UNL1       -0.0822
     35 C          61.0557   90.3939   12.2365 C.3     1  UNL1        0.0080
     36 C          62.1970   90.4004   11.2631 C.3     1  UNL1        0.0600
     37 C          62.0532   89.7197    9.9343 C.3     1  UNL1        0.0080
@<TRIPOS>UNITY_ATOM_ATTR
18 1
charge -1
@<TRIPOS>BOND
     1    35    36    1
     2    36    37    1
     3    36    22    1
     4    22    23   ar
     5    23    24   ar
     6    24    25   ar
     7    25    27    1
     8    27    28   ar
     9    28    29    1
    10    28    30   ar
    11    30    31   ar
    12    31    32   ar
    13    32    33   ar
    14    33    34    1
    15    25    26   ar
    16    26    21    1
    17    21    20    1
    18    20     1    1
    19     1     2   ar
    20     2     3   ar
    21     3     4   ar
    22     4     7    1
    23     7     8   ar
    24     8     9   ar
    25     9    10   ar
    26    10    11   ar
    27    11    17    1
    28    17    18   ar
    29    17    19   ar
    30    11    12   ar
    31    12    13   ar
    32    13    14   ar
    33    14    15   ar
    34    15    16   ar
    35     4     5   ar
    36     5     6   ar
    37    26    22   ar
    38     6     1   ar
    39    33    27   ar
    40    16     7   ar
    41    15    10   ar
