@<TRIPOS>MOLECULE
*****
 31 35 0 0 0
SMALL
GASTEIGER

@<TRIPOS>ATOM
      1 C          63.6588   83.3919   13.1291 C.ar    1  UNL1        0.1388
      2 C          64.1744   84.1544   14.3135 C.ar    1  UNL1        0.0384
      3 C          64.0882   85.6517   14.3369 C.ar    1  UNL1        0.0221
      4 C          63.4864   86.3865   13.1760 C.ar    1  UNL1        0.0827
      5 C          62.9708   85.6240   11.9916 C.ar    1  UNL1        0.0217
      6 C          63.0570   84.1267   11.9681 C.ar    1  UNL1        0.0384
      7 C          62.4337   86.6141   11.0010 C.ar    1  UNL1        0.0163
      8 C          62.6174   87.9885   11.5731 C.ar    1  UNL1        0.0996
      9 N          63.2680   87.8478   12.9174 N.ar    1  UNL1       -0.2077
     10 C          61.8207   86.2873    9.6716 C.2     1  UNL1       -0.0222
     11 C          62.6173   85.5440    8.6406 C.2     1  UNL1       -0.0132
     12 C          62.0042   85.2171    7.3112 C.3     1  UNL1        0.0950
     13 N          60.5945   85.6335    7.0128 N.3     1  UNL1       -0.2935
     14 C          59.7978   86.3768    8.0438 C.3     1  UNL1        0.0735
     15 C          60.4109   86.7037    9.3732 C.3     1  UNL1        0.0432
     16 H          60.0755   84.7824    6.7970 H       1  UNL1        0.1236
     17 S          63.6356   88.9713   13.8409 S.O2    1  UNL1        0.0875
     18 O          64.6912   88.1099   14.4685 O.2     1  UNL1       -0.1475
     19 O          62.5801   89.8326   13.2133 O.2     1  UNL1       -0.1475
     20 C          64.0033   90.0947   14.7643 C.ar    1  UNL1        0.1467
     21 C          63.3969   90.1683   16.1343 C.ar    1  UNL1        0.1192
     22 N          63.7645   91.2917   17.0578 N.ar    1  UNL1       -0.2409
     23 C          64.7385   92.3415   16.6113 C.ar    1  UNL1        0.0989
     24 C          65.3449   92.2678   15.2413 C.ar    1  UNL1        0.0205
     25 C          66.3189   93.3176   14.7948 C.ar    1  UNL1        0.0016
     26 C          66.9252   93.2439   13.4248 C.ar    1  UNL1        0.0001
     27 C          66.5576   92.1205   12.5013 C.ar    1  UNL1        0.0000
     28 C          65.5836   91.0708   12.9478 C.ar    1  UNL1        0.0014
     29 C          64.9773   91.1444   14.3178 C.ar    1  UNL1        0.0221
     30 C          62.5145   81.0688   13.3381 C.3     1  UNL1        0.2525
     31 O          63.7449   81.8946   13.1057 O.3     1  UNL1       -0.4714
@<TRIPOS>BOND
     1    30    31    1
     2    31     1    1
     3     1     2   ar
     4     2     3   ar
     5     3     4   ar
     6     4     5   ar
     7     5     6   ar
     8     5     7   ar
     9     7    10    1
    10    10    11    2
    11    11    12    1
    12    12    13    1
    13    13    14    1
    14    14    15    1
    15     7     8   ar
    16     8     9   ar
    17     9    17    1
    18    17    18    2
    19    17    19    2
    20    17    20    1
    21    20    21   ar
    22    21    22   ar
    23    22    23   ar
    24    23    24   ar
    25    24    25   ar
    26    25    26   ar
    27    26    27   ar
    28    27    28   ar
    29    28    29   ar
    30     6     1   ar
    31    15    10    1
    32    29    20   ar
    33     9     4   ar
    34    29    24   ar
    35    13    16    1
@<TRIPOS>MOLECULE
*****
 31 35 0 0 0
SMALL
GASTEIGER

@<TRIPOS>ATOM
      1 C          62.8532   90.1313   10.5924 C.ar    1  UNL1        0.1388
      2 C          62.4379   88.7389   10.2199 C.ar    1  UNL1        0.0384
      3 C          62.6466   87.6103   11.1857 C.ar    1  UNL1        0.0221
      4 C          63.2705   87.8742   12.5240 C.ar    1  UNL1        0.0827
      5 C          63.6859   89.2666   12.8965 C.ar    1  UNL1        0.0217
      6 C          63.4772   90.3952   11.9306 C.ar    1  UNL1        0.0384
      7 C          64.2714   89.2221   14.2767 C.ar    1  UNL1        0.0163
      8 C          64.2180   87.8021   14.7573 C.ar    1  UNL1        0.0996
      9 N          63.5994   86.9691   13.6741 N.ar    1  UNL1       -0.2077
     10 C          64.8150   90.3920   15.0421 C.2     1  UNL1       -0.0222
     11 C          64.0105   91.0015   16.1518 C.2     1  UNL1       -0.0132
     12 C          64.5541   92.1714   16.9171 C.3     1  UNL1        0.0950
     13 N          65.9021   92.7319   16.5728 N.3     1  UNL1       -0.2935
     14 C          66.7066   92.1225   15.4630 C.3     1  UNL1        0.0735
     15 C          66.1630   90.9525   14.6977 C.3     1  UNL1        0.0432
     16 H          66.4711   92.6703   17.4171 H       1  UNL1        0.1236
     17 S          63.3529   85.4906   13.7309 S.O2    1  UNL1        0.0875
     18 O          62.0249   85.6862   13.0616 O.2     1  UNL1       -0.1475
     19 O          64.6810   85.2949   14.4002 O.2     1  UNL1       -0.1475
     20 C          63.1065   84.0120   13.7877 C.ar    1  UNL1        0.1467
     21 C          62.6689   83.3735   15.0725 C.ar    1  UNL1        0.1192
     22 N          62.4224   81.8950   15.1293 N.ar    1  UNL1       -0.2409
     23 C          62.6136   81.0550   13.9014 C.ar    1  UNL1        0.0989
     24 C          63.0512   81.6936   12.6165 C.ar    1  UNL1        0.0205
     25 C          63.2424   80.8536   11.3886 C.ar    1  UNL1        0.0016
     26 C          63.6800   81.4922   10.1038 C.ar    1  UNL1        0.0001
     27 C          63.9264   82.9707   10.0470 C.ar    1  UNL1        0.0000
     28 C          63.7353   83.8106   11.2749 C.ar    1  UNL1        0.0014
     29 C          63.2977   83.1721   12.5597 C.ar    1  UNL1        0.0221
     30 C          63.5479   92.4567    9.6651 C.3     1  UNL1        0.2525
     31 O          62.6445   91.2598    9.6265 O.3     1  UNL1       -0.4714
@<TRIPOS>BOND
     1    30    31    1
     2    31     1    1
     3     1     2   ar
     4     2     3   ar
     5     3     4   ar
     6     4     5   ar
     7     5     6   ar
     8     5     7   ar
     9     7    10    1
    10    10    11    2
    11    11    12    1
    12    12    13    1
    13    13    14    1
    14    14    15    1
    15     7     8   ar
    16     8     9   ar
    17     9    17    1
    18    17    18    2
    19    17    19    2
    20    17    20    1
    21    20    21   ar
    22    21    22   ar
    23    22    23   ar
    24    23    24   ar
    25    24    25   ar
    26    25    26   ar
    27    26    27   ar
    28    27    28   ar
    29    28    29   ar
    30     6     1   ar
    31    15    10    1
    32    29    20   ar
    33     9     4   ar
    34    29    24   ar
    35    13    16    1
@<TRIPOS>MOLECULE
*****
 31 35 0 0 0
SMALL
GASTEIGER

@<TRIPOS>ATOM
      1 C          62.8284   84.5374   12.9394 C.ar    1  UNL1        0.1388
      2 C          63.6906   85.3078   13.8950 C.ar    1  UNL1        0.0384
      3 C          63.8947   86.7810   13.7004 C.ar    1  UNL1        0.0221
      4 C          63.2365   87.4839   12.5503 C.ar    1  UNL1        0.0827
      5 C          62.3744   86.7135   11.5947 C.ar    1  UNL1        0.0217
      6 C          62.1703   85.2403   11.7892 C.ar    1  UNL1        0.0384
      7 C          61.8586   87.6704   10.5610 C.ar    1  UNL1        0.0163
      8 C          62.4021   89.0321   10.8778 C.ar    1  UNL1        0.0996
      9 N          63.2537   88.9169   12.1072 N.ar    1  UNL1       -0.2077
     10 C          60.9577   87.3260    9.4123 C.2     1  UNL1       -0.0222
     11 C          59.8695   88.2736    9.0023 C.2     1  UNL1       -0.0132
     12 C          58.9686   87.9292    7.8535 C.3     1  UNL1        0.0950
     13 N          59.1557   86.6373    7.1148 N.3     1  UNL1       -0.2935
     14 C          60.2438   85.6897    7.5248 C.3     1  UNL1        0.0735
     15 C          61.1448   86.0340    8.6735 C.3     1  UNL1        0.0432
     16 H          59.3276   86.8784    6.1387 H       1  UNL1        0.1236
     17 S          63.9927   90.0378   12.7762 S.O2    1  UNL1        0.0875
     18 O          63.5852   90.9662   11.6707 O.2     1  UNL1       -0.1475
     19 O          64.4002   89.1094   13.8816 O.2     1  UNL1       -0.1475
     20 C          64.7317   91.1587   13.4451 C.ar    1  UNL1        0.1467
     21 C          64.8920   91.1666   14.9364 C.ar    1  UNL1        0.1192
     22 N          65.6310   92.2875   15.6054 N.ar    1  UNL1       -0.2409
     23 C          66.2097   93.4005   14.7829 C.ar    1  UNL1        0.0989
     24 C          66.0493   93.3926   13.2915 C.ar    1  UNL1        0.0205
     25 C          66.6279   94.5056   12.4691 C.ar    1  UNL1        0.0016
     26 C          66.4676   94.4977   10.9777 C.ar    1  UNL1        0.0001
     27 C          65.7286   93.3767   10.3088 C.ar    1  UNL1        0.0000
     28 C          65.1500   92.2638   11.1312 C.ar    1  UNL1        0.0014
     29 C          65.3103   92.2717   12.6226 C.ar    1  UNL1        0.0221
     30 C          62.6576   82.4782   14.5144 C.3     1  UNL1        0.2525
     31 O          62.6243   83.0641   13.1339 O.3     1  UNL1       -0.4714
@<TRIPOS>BOND
     1    30    31    1
     2    31     1    1
     3     1     2   ar
     4     2     3   ar
     5     3     4   ar
     6     4     5   ar
     7     5     6   ar
     8     5     7   ar
     9     7    10    1
    10    10    11    2
    11    11    12    1
    12    12    13    1
    13    13    14    1
    14    14    15    1
    15     7     8   ar
    16     8     9   ar
    17     9    17    1
    18    17    18    2
    19    17    19    2
    20    17    20    1
    21    20    21   ar
    22    21    22   ar
    23    22    23   ar
    24    23    24   ar
    25    24    25   ar
    26    25    26   ar
    27    26    27   ar
    28    27    28   ar
    29    28    29   ar
    30     6     1   ar
    31    15    10    1
    32    29    20   ar
    33     9     4   ar
    34    29    24   ar
    35    13    16    1
@<TRIPOS>MOLECULE
*****
 31 35 0 0 0
SMALL
GASTEIGER

@<TRIPOS>ATOM
      1 C          60.5732   89.3091    9.0418 C.ar    1  UNL1        0.1388
      2 C          60.1829   87.8782    9.2662 C.ar    1  UNL1        0.0384
      3 C          60.8660   87.0727   10.3313 C.ar    1  UNL1        0.0221
      4 C          61.9393   87.6980   11.1721 C.ar    1  UNL1        0.0827
      5 C          62.3295   89.1289   10.9478 C.ar    1  UNL1        0.0217
      6 C          61.6465   89.9344    9.8826 C.ar    1  UNL1        0.0384
      7 C          63.4145   89.4720   11.9250 C.ar    1  UNL1        0.0163
      8 C          63.6948   88.2533   12.7533 C.ar    1  UNL1        0.0996
      9 N          62.7830   87.1568   12.2880 N.ar    1  UNL1       -0.2077
     10 C          64.0991   90.8007   12.0518 C.2     1  UNL1       -0.0222
     11 C          64.2281   91.6952   10.8545 C.2     1  UNL1       -0.0132
     12 C          64.9126   93.0238   10.9813 C.3     1  UNL1        0.0950
     13 N          65.4682   93.4580   12.3052 N.3     1  UNL1       -0.2935
     14 C          65.3391   92.5635   13.5024 C.3     1  UNL1        0.0735
     15 C          64.6546   91.2349   13.3757 C.3     1  UNL1        0.0432
     16 H          65.0086   94.3369   12.5434 H       1  UNL1        0.1236
     17 S          62.7252   85.7638   12.8414 S.O2    1  UNL1        0.0875
     18 O          61.5896   85.4431   11.9153 O.2     1  UNL1       -0.1475
     19 O          63.8608   86.0846   13.7674 O.2     1  UNL1       -0.1475
     20 C          62.6674   84.3709   13.3948 C.ar    1  UNL1        0.1467
     21 C          62.3810   84.1537   14.8511 C.ar    1  UNL1        0.1192
     22 N          62.3232   82.7607   15.4044 N.ar    1  UNL1       -0.2409
     23 C          62.5517   81.5849   14.5016 C.ar    1  UNL1        0.0989
     24 C          62.8380   81.8020   13.0452 C.ar    1  UNL1        0.0205
     25 C          63.0665   80.6262   12.1423 C.ar    1  UNL1        0.0016
     26 C          63.3528   80.8434   10.6860 C.ar    1  UNL1        0.0001
     27 C          63.4106   82.2364   10.1326 C.ar    1  UNL1        0.0000
     28 C          63.1822   83.4122   11.0355 C.ar    1  UNL1        0.0014
     29 C          62.8958   83.1950   12.4918 C.ar    1  UNL1        0.0221
     30 C          59.3897   89.4421    6.7328 C.3     1  UNL1        0.2525
     31 O          59.8902   90.1146    7.9767 O.3     1  UNL1       -0.4714
@<TRIPOS>BOND
     1    30    31    1
     2    31     1    1
     3     1     2   ar
     4     2     3   ar
     5     3     4   ar
     6     4     5   ar
     7     5     6   ar
     8     5     7   ar
     9     7    10    1
    10    10    11    2
    11    11    12    1
    12    12    13    1
    13    13    14    1
    14    14    15    1
    15     7     8   ar
    16     8     9   ar
    17     9    17    1
    18    17    18    2
    19    17    19    2
    20    17    20    1
    21    20    21   ar
    22    21    22   ar
    23    22    23   ar
    24    23    24   ar
    25    24    25   ar
    26    25    26   ar
    27    26    27   ar
    28    27    28   ar
    29    28    29   ar
    30     6     1   ar
    31    15    10    1
    32    29    20   ar
    33     9     4   ar
    34    29    24   ar
    35    13    16    1
@<TRIPOS>MOLECULE
*****
 31 35 0 0 0
SMALL
GASTEIGER

@<TRIPOS>ATOM
      1 C          62.8288   86.0931   13.0687 C.ar    1  UNL1        0.1388
      2 C          63.7684   87.0206   13.7807 C.ar    1  UNL1        0.0384
      3 C          64.0119   88.3996   13.2431 C.ar    1  UNL1        0.0221
      4 C          63.3159   88.8511   11.9934 C.ar    1  UNL1        0.0827
      5 C          62.3763   87.9236   11.2814 C.ar    1  UNL1        0.0217
      6 C          62.1328   86.5446   11.8190 C.ar    1  UNL1        0.0384
      7 C          61.8375   88.6421   10.0800 C.ar    1  UNL1        0.0163
      8 C          62.4441   90.0137   10.0495 C.ar    1  UNL1        0.0996
      9 N          63.3578   90.1429   11.2321 N.ar    1  UNL1       -0.2077
     10 C          60.8632   88.0867    9.0839 C.2     1  UNL1       -0.0222
     11 C          60.8286   86.6122    8.8105 C.2     1  UNL1       -0.0132
     12 C          59.8543   86.0567    7.8144 C.3     1  UNL1        0.0950
     13 N          58.9146   86.9758    7.0918 N.3     1  UNL1       -0.2935
     14 C          58.9491   88.4502    7.3652 C.3     1  UNL1        0.0735
     15 C          59.9235   89.0057    8.3613 C.3     1  UNL1        0.0432
     16 H          57.9692   86.6586    7.3065 H       1  UNL1        0.1236
     17 S          64.1706   91.3515   11.5904 S.O2    1  UNL1        0.0875
     18 O          64.8563   91.2854   10.2579 O.2     1  UNL1       -0.1475
     19 O          63.4850   91.4176   12.9229 O.2     1  UNL1       -0.1475
     20 C          64.9835   92.5602   11.9487 C.ar    1  UNL1        0.1467
     21 C          65.0297   93.7357   11.0182 C.ar    1  UNL1        0.1192
     22 N          65.8426   94.9444   11.3766 N.ar    1  UNL1       -0.2409
     23 C          66.6092   94.9775   12.6654 C.ar    1  UNL1        0.0989
     24 C          66.5630   93.8019   13.5960 C.ar    1  UNL1        0.0205
     25 C          67.3297   93.8350   14.8848 C.ar    1  UNL1        0.0016
     26 C          67.2834   92.6595   15.8153 C.ar    1  UNL1        0.0001
     27 C          66.4706   91.4508   15.4570 C.ar    1  UNL1        0.0000
     28 C          65.7039   91.4177   14.1682 C.ar    1  UNL1        0.0014
     29 C          65.7502   92.5933   13.2377 C.ar    1  UNL1        0.0221
     30 C          63.0413   84.3573   14.9901 C.3     1  UNL1        0.2525
     31 O          62.5853   84.7141   13.6063 O.3     1  UNL1       -0.4714
@<TRIPOS>BOND
     1    30    31    1
     2    31     1    1
     3     1     2   ar
     4     2     3   ar
     5     3     4   ar
     6     4     5   ar
     7     5     6   ar
     8     5     7   ar
     9     7    10    1
    10    10    11    2
    11    11    12    1
    12    12    13    1
    13    13    14    1
    14    14    15    1
    15     7     8   ar
    16     8     9   ar
    17     9    17    1
    18    17    18    2
    19    17    19    2
    20    17    20    1
    21    20    21   ar
    22    21    22   ar
    23    22    23   ar
    24    23    24   ar
    25    24    25   ar
    26    25    26   ar
    27    26    27   ar
    28    27    28   ar
    29    28    29   ar
    30     6     1   ar
    31    15    10    1
    32    29    20   ar
    33     9     4   ar
    34    29    24   ar
    35    13    16    1
@<TRIPOS>MOLECULE
*****
 31 35 0 0 0
SMALL
GASTEIGER

@<TRIPOS>ATOM
      1 C          62.8908   93.8292   -4.5122 C.ar    1  UNL1        0.1388
      2 C          61.6427   94.2807   -5.2112 C.ar    1  UNL1        0.0384
      3 C          60.3875   94.5194   -4.4254 C.ar    1  UNL1        0.0221
      4 C          60.3804   94.3067   -2.9406 C.ar    1  UNL1        0.0827
      5 C          61.6284   93.8552   -2.2416 C.ar    1  UNL1        0.0217
      6 C          62.8836   93.6165   -3.0274 C.ar    1  UNL1        0.0384
      7 C          61.3209   93.7300   -0.7788 C.ar    1  UNL1        0.0163
      8 C          59.8829   94.1040   -0.5738 C.ar    1  UNL1        0.0996
      9 N          59.3016   94.4605   -1.9098 N.ar    1  UNL1       -0.2077
     10 C          62.2826   93.3052    0.2911 C.2     1  UNL1       -0.0222
     11 C          61.8608   92.3021    1.3236 C.2     1  UNL1       -0.0132
     12 C          62.8225   91.8774    2.3935 C.3     1  UNL1        0.0950
     13 N          64.2060   92.4558    2.4310 N.3     1  UNL1       -0.2935
     14 C          64.6278   93.4589    1.3985 C.3     1  UNL1        0.0735
     15 C          63.6661   93.8836    0.3286 C.3     1  UNL1        0.0432
     16 H          64.8549   91.6718    2.3622 H       1  UNL1        0.1236
     17 S          57.8894   94.8945   -2.1695 S.O2    1  UNL1        0.0875
     18 O          57.4382   93.4654   -2.1044 O.2     1  UNL1       -0.1475
     19 O          58.3406   96.3235   -2.2347 O.2     1  UNL1       -0.1475
     20 C          56.4773   95.3285   -2.4292 C.ar    1  UNL1        0.1467
     21 C          55.5965   95.7386   -1.2865 C.ar    1  UNL1        0.1192
     22 N          54.1843   96.1726   -1.5462 N.ar    1  UNL1       -0.2409
     23 C          53.6529   96.1965   -2.9486 C.ar    1  UNL1        0.0989
     24 C          54.5337   95.7864   -4.0915 C.ar    1  UNL1        0.0205
     25 C          54.0023   95.8103   -5.4940 C.ar    1  UNL1        0.0016
     26 C          54.8831   95.4002   -6.6368 C.ar    1  UNL1        0.0001
     27 C          56.2953   94.9662   -6.3771 C.ar    1  UNL1        0.0000
     28 C          56.8267   94.9423   -4.9746 C.ar    1  UNL1        0.0014
     29 C          55.9459   95.3524   -3.8318 C.ar    1  UNL1        0.0221
     30 C          65.0188   92.4134   -4.9778 C.3     1  UNL1        0.2525
     31 O          64.1459   93.5905   -5.2980 O.3     1  UNL1       -0.4714
@<TRIPOS>BOND
     1    30    31    1
     2    31     1    1
     3     1     2   ar
     4     2     3   ar
     5     3     4   ar
     6     4     5   ar
     7     5     6   ar
     8     5     7   ar
     9     7    10    1
    10    10    11    2
    11    11    12    1
    12    12    13    1
    13    13    14    1
    14    14    15    1
    15     7     8   ar
    16     8     9   ar
    17     9    17    1
    18    17    18    2
    19    17    19    2
    20    17    20    1
    21    20    21   ar
    22    21    22   ar
    23    22    23   ar
    24    23    24   ar
    25    24    25   ar
    26    25    26   ar
    27    26    27   ar
    28    27    28   ar
    29    28    29   ar
    30     6     1   ar
    31    15    10    1
    32    29    20   ar
    33     9     4   ar
    34    29    24   ar
    35    13    16    1
@<TRIPOS>MOLECULE
*****
 31 35 0 0 0
SMALL
GASTEIGER

@<TRIPOS>ATOM
      1 C          60.2897   89.8173   10.8764 C.ar    1  UNL1        0.1388
      2 C          60.0783   88.4708   10.2501 C.ar    1  UNL1        0.0384
      3 C          60.9615   87.3196   10.6305 C.ar    1  UNL1        0.0221
      4 C          62.0563   87.5150   11.6371 C.ar    1  UNL1        0.0827
      5 C          62.2677   88.8615   12.2634 C.ar    1  UNL1        0.0217
      6 C          61.3844   90.0127   11.8830 C.ar    1  UNL1        0.0384
      7 C          63.4192   88.7528   13.2185 C.ar    1  UNL1        0.0163
      8 C          63.9194   87.3391   13.1825 C.ar    1  UNL1        0.0996
      9 N          63.0770   86.5741   12.2052 N.ar    1  UNL1       -0.2077
     10 C          63.9732   89.8629   14.0616 C.2     1  UNL1       -0.0222
     11 C          65.0394   90.7627   13.5106 C.2     1  UNL1       -0.0132
     12 C          65.5934   91.8728   14.3537 C.3     1  UNL1        0.0950
     13 N          65.0813   92.0829   15.7478 N.3     1  UNL1       -0.2935
     14 C          64.0152   91.1831   16.2988 C.3     1  UNL1        0.0735
     15 C          63.4611   90.0730   15.4557 C.3     1  UNL1        0.0432
     16 H          64.7131   93.0334   15.7861 H       1  UNL1        0.1236
     17 S          63.2288   85.1230   11.8570 S.O2    1  UNL1        0.0875
     18 O          62.4403   85.3421   10.6000 O.2     1  UNL1       -0.1475
     19 O          64.0174   84.9039   13.1141 O.2     1  UNL1       -0.1475
     20 C          63.3806   83.6719   11.5088 C.ar    1  UNL1        0.1467
     21 C          64.1062   83.2726   10.2582 C.ar    1  UNL1        0.1192
     22 N          64.2580   81.8214    9.9101 N.ar    1  UNL1       -0.2409
     23 C          63.6842   80.7696   10.8125 C.ar    1  UNL1        0.0989
     24 C          62.9586   81.1689   12.0632 C.ar    1  UNL1        0.0205
     25 C          62.3848   80.1171   12.9656 C.ar    1  UNL1        0.0016
     26 C          61.6592   80.5164   14.2162 C.ar    1  UNL1        0.0001
     27 C          61.5074   81.9675   14.5644 C.ar    1  UNL1        0.0000
     28 C          62.0812   83.0193   13.6620 C.ar    1  UNL1        0.0014
     29 C          62.8068   82.6200   12.4114 C.ar    1  UNL1        0.0221
     30 C          58.5959   91.6704   11.5449 C.3     1  UNL1        0.2525
     31 O          59.4064   90.9684   10.4960 O.3     1  UNL1       -0.4714
@<TRIPOS>BOND
     1    30    31    1
     2    31     1    1
     3     1     2   ar
     4     2     3   ar
     5     3     4   ar
     6     4     5   ar
     7     5     6   ar
     8     5     7   ar
     9     7    10    1
    10    10    11    2
    11    11    12    1
    12    12    13    1
    13    13    14    1
    14    14    15    1
    15     7     8   ar
    16     8     9   ar
    17     9    17    1
    18    17    18    2
    19    17    19    2
    20    17    20    1
    21    20    21   ar
    22    21    22   ar
    23    22    23   ar
    24    23    24   ar
    25    24    25   ar
    26    25    26   ar
    27    26    27   ar
    28    27    28   ar
    29    28    29   ar
    30     6     1   ar
    31    15    10    1
    32    29    20   ar
    33     9     4   ar
    34    29    24   ar
    35    13    16    1
