@<TRIPOS>MOLECULE
*****
 40 44 0 0 0
SMALL
GASTEIGER

@<TRIPOS>ATOM
      1 C          60.4104   92.2121    3.6945 C.ar    1  UNL1        0.1385
      2 C          58.9508   92.3432    4.0144 C.ar    1  UNL1        0.0366
      3 C          58.3428   91.5056    5.1002 C.ar    1  UNL1       -0.0011
      4 C          59.1945   90.5371    5.8660 C.ar    1  UNL1       -0.0214
      5 C          60.6541   90.4060    5.5462 C.ar    1  UNL1       -0.0011
      6 C          61.2620   91.2436    4.4604 C.ar    1  UNL1        0.0366
      7 O          61.0184   93.0496    2.6088 O.3     1  UNL1       -0.4750
      8 C          62.4579   92.8597    2.2321 C.3     1  UNL1        0.2118
      9 C          62.9190   93.1865    0.8427 C.3     1  UNL1        0.0960
     10 C          63.0568   95.6282   -1.3181 C.3     1  UNL1        0.0738
     11 C          61.9771   94.5909   -1.2275 C.ar    1  UNL1        0.1387
     12 O          60.7711   94.4938   -2.1142 O.2     1  UNL1       -0.4392
     13 C          59.9624   93.3115   -1.6690 C.ar    1  UNL1        0.2289
     14 N          60.6686   92.6779   -0.5071 N.ar    1  UNL1       -0.2129
     15 C          61.9137   93.4686   -0.2343 C.ar    1  UNL1        0.0960
     16 C          58.6738   92.8447   -2.2786 C.ar    1  UNL1        0.0535
     17 C          58.5247   92.7944   -3.7703 C.ar    1  UNL1        0.0046
     18 C          57.2361   92.3277   -4.3799 C.ar    1  UNL1        0.0002
     19 C          56.0966   91.9113   -3.4977 C.ar    1  UNL1        0.0000
     20 C          56.2457   91.9616   -2.0061 C.ar    1  UNL1        0.0002
     21 C          57.5343   92.4283   -1.3965 C.ar    1  UNL1        0.0046
     22 C          58.5865   89.6995    6.9519 C.3     1  UNL1        0.0375
     23 C          59.4319   88.7112    7.6991 C.3     1  UNL1        0.1052
     24 C          59.6980   87.2397    7.5809 C.2     1  UNL1        0.2315
     25 O          59.2289   86.1470    6.6667 O.2     1  UNL1       -0.2745
     26 N          60.6277   87.3135    8.7559 N.am    1  UNL1       -0.2546
     27 C          60.3615   88.7850    8.8740 C.3     1  UNL1        0.1249
     28 C          61.4731   86.3252    9.5031 C.ar    1  UNL1        0.0541
     29 C          62.4697   85.4815    8.7650 C.ar    1  UNL1        0.0146
     30 C          63.3152   84.4931    9.5123 C.ar    1  UNL1       -0.0030
     31 C          63.1641   84.3485   10.9977 C.ar    1  UNL1       -0.0227
     32 C          62.1674   85.1923   11.7357 C.ar    1  UNL1       -0.0030
     33 C          61.3220   86.1806   10.9884 C.ar    1  UNL1        0.0146
     34 C          64.0095   83.3602   11.7449 C.3     1  UNL1        0.0189
     35 C          63.7744   84.1204   13.0164 C.3     1  UNL1        0.0044
     36 C          64.2446   82.6000   10.4734 C.3     1  UNL1        0.0044
     37 C          64.8550   82.3719   12.4921 C.3     1  UNL1        0.0044
     38 C          60.8307   89.8777    9.7883 C.2     1  UNL1        0.0692
     39 O          62.2954   90.0479   10.0637 O.co2   1  UNL1       -0.5475
     40 O          59.8352   90.8000   10.4272 O.co2   1  UNL1       -0.5475
@<TRIPOS>UNITY_ATOM_ATTR
39 1
charge -1
@<TRIPOS>BOND
     1    10    11    1
     2    11    12   ar
     3    12    13   ar
     4    13    16    1
     5    16    17   ar
     6    17    18   ar
     7    18    19   ar
     8    19    20   ar
     9    20    21   ar
    10    13    14   ar
    11    14    15   ar
    12    15     9    1
    13     9     8    1
    14     8     7    1
    15     7     1    1
    16     1     2   ar
    17     2     3   ar
    18     3     4   ar
    19     4    22    1
    20    23    22    1
    21    23    24    1
    22    24    25    2
    23    24    26   am
    24    26    28    1
    25    28    29   ar
    26    29    30   ar
    27    30    31   ar
    28    31    34    1
    29    34    35    1
    30    34    36    1
    31    34    37    1
    32    31    32   ar
    33    32    33   ar
    34    26    27    1
    35    27    38    1
    36    38    39   ar
    37    38    40   ar
    38     4     5   ar
    39     5     6   ar
    40    15    11   ar
    41     6     1   ar
    42    21    16   ar
    43    27    23    1
    44    33    28   ar
@<TRIPOS>MOLECULE
*****
 40 44 0 0 0
SMALL
GASTEIGER

@<TRIPOS>ATOM
      1 C          60.3313   92.2045    3.6962 C.ar    1  UNL1        0.1385
      2 C          58.8694   92.3153    4.0132 C.ar    1  UNL1        0.0366
      3 C          58.2722   91.4741    5.1022 C.ar    1  UNL1       -0.0011
      4 C          59.1371   90.5222    5.8742 C.ar    1  UNL1       -0.0214
      5 C          60.5991   90.4115    5.5572 C.ar    1  UNL1       -0.0011
      6 C          61.1961   91.2527    4.4682 C.ar    1  UNL1        0.0366
      7 O          60.9284   93.0456    2.6072 O.3     1  UNL1       -0.4750
      8 C          60.6305   92.7344    1.1704 C.3     1  UNL1        0.2118
      9 C          60.7077   93.8185    0.1366 C.3     1  UNL1        0.0960
     10 C          63.4573   95.1500    1.2839 C.3     1  UNL1        0.0738
     11 C          63.2394   94.6400   -0.1098 C.ar    1  UNL1        0.1387
     12 O          64.2471   94.6526   -1.2209 O.2     1  UNL1       -0.4392
     13 C          63.6060   94.0483   -2.4349 C.ar    1  UNL1        0.2289
     14 N          62.2021   93.6623   -2.0742 N.ar    1  UNL1       -0.2129
     15 C          61.9755   94.0280   -0.6372 C.ar    1  UNL1        0.0960
     16 C          64.2549   93.8627   -3.7745 C.ar    1  UNL1        0.0535
     17 C          64.7264   95.0561   -4.5513 C.ar    1  UNL1        0.0046
     18 C          65.3753   94.8704   -5.8909 C.ar    1  UNL1        0.0002
     19 C          65.5527   93.4913   -6.4536 C.ar    1  UNL1        0.0000
     20 C          65.0811   92.2979   -5.6768 C.ar    1  UNL1        0.0002
     21 C          64.4323   92.4836   -4.3373 C.ar    1  UNL1        0.0046
     22 C          58.5400   89.6811    6.9633 C.3     1  UNL1        0.0375
     23 C          59.3970   88.7029    7.7107 C.3     1  UNL1        0.1052
     24 C          59.6610   87.2299    7.6088 C.2     1  UNL1        0.2315
     25 O          59.1774   86.1247    6.7173 O.2     1  UNL1       -0.2745
     26 N          60.6090   87.3196    8.7679 N.am    1  UNL1       -0.2546
     27 C          60.3449   88.7927    8.8697 C.3     1  UNL1        0.1249
     28 C          61.4660   86.3415    9.5153 C.ar    1  UNL1        0.0541
     29 C          62.4590   85.4955    8.7749 C.ar    1  UNL1        0.0146
     30 C          63.3160   84.5174    9.5224 C.ar    1  UNL1       -0.0030
     31 C          63.1800   84.3852   11.0104 C.ar    1  UNL1       -0.0227
     32 C          62.1870   85.2312   11.7508 C.ar    1  UNL1       -0.0030
     33 C          61.3300   86.2093   11.0033 C.ar    1  UNL1        0.0146
     34 C          64.0370   83.4070   11.7579 C.3     1  UNL1        0.0189
     35 C          63.8268   84.1881   13.0211 C.3     1  UNL1        0.0044
     36 C          64.2473   82.6259   10.4947 C.3     1  UNL1        0.0044
     37 C          64.8940   82.4288   12.5053 C.3     1  UNL1        0.0044
     38 C          60.8286   89.8978    9.7613 C.2     1  UNL1        0.0692
     39 O          62.2993   90.0948    9.9812 O.co2   1  UNL1       -0.5475
     40 O          59.8416   90.8058   10.4330 O.co2   1  UNL1       -0.5475
@<TRIPOS>UNITY_ATOM_ATTR
39 1
charge -1
@<TRIPOS>BOND
     1    10    11    1
     2    11    12   ar
     3    12    13   ar
     4    13    16    1
     5    16    17   ar
     6    17    18   ar
     7    18    19   ar
     8    19    20   ar
     9    20    21   ar
    10    13    14   ar
    11    14    15   ar
    12    15     9    1
    13     9     8    1
    14     8     7    1
    15     7     1    1
    16     1     2   ar
    17     2     3   ar
    18     3     4   ar
    19     4    22    1
    20    23    22    1
    21    23    24    1
    22    24    25    2
    23    24    26   am
    24    26    28    1
    25    28    29   ar
    26    29    30   ar
    27    30    31   ar
    28    31    34    1
    29    34    35    1
    30    34    36    1
    31    34    37    1
    32    31    32   ar
    33    32    33   ar
    34    26    27    1
    35    27    38    1
    36    38    39   ar
    37    38    40   ar
    38     4     5   ar
    39     5     6   ar
    40    15    11   ar
    41     6     1   ar
    42    21    16   ar
    43    27    23    1
    44    33    28   ar
@<TRIPOS>MOLECULE
*****
 40 44 0 0 0
SMALL
GASTEIGER

@<TRIPOS>ATOM
      1 C          59.1838   90.2061    5.6204 C.ar    1  UNL1        0.1385
      2 C          58.0455   91.1052    5.2385 C.ar    1  UNL1        0.0366
      3 C          58.3070   92.3498    4.4431 C.ar    1  UNL1       -0.0011
      4 C          59.7069   92.6951    4.0296 C.ar    1  UNL1       -0.0214
      5 C          60.8452   91.7960    4.4114 C.ar    1  UNL1       -0.0011
      6 C          60.5836   90.5515    5.2068 C.ar    1  UNL1        0.0366
      7 O          58.9222   88.9615    6.4158 O.3     1  UNL1       -0.4750
      8 C          59.6339   88.7399    7.7175 C.3     1  UNL1        0.2118
      9 C          59.2541   87.5821    8.5923 C.3     1  UNL1        0.0960
     10 C          59.9146   89.1256   11.3907 C.3     1  UNL1        0.0738
     11 C          60.4990   87.8176   10.9460 C.ar    1  UNL1        0.1387
     12 O          61.4896   86.9895   11.7094 O.2     1  UNL1       -0.4392
     13 C          61.7983   85.7682   10.8950 C.ar    1  UNL1        0.2289
     14 N          60.9984   85.8416    9.6282 N.ar    1  UNL1       -0.2129
     15 C          60.1955   87.1082    9.6596 C.ar    1  UNL1        0.0960
     16 C          62.7413   84.6670   11.2798 C.ar    1  UNL1        0.0535
     17 C          63.4600   83.8895   10.2173 C.ar    1  UNL1        0.0046
     18 C          64.4029   82.7883   10.6022 C.ar    1  UNL1        0.0002
     19 C          64.6271   82.4645   12.0496 C.ar    1  UNL1        0.0000
     20 C          63.9084   83.2420   13.1121 C.ar    1  UNL1        0.0002
     21 C          62.9655   84.3432   12.7272 C.ar    1  UNL1        0.0046
     22 C          59.9684   93.9398    3.2341 C.3     1  UNL1        0.0375
     23 C          60.5250   93.8389    1.8449 C.3     1  UNL1        0.1052
     24 C          59.9494   93.9281    0.4626 C.2     1  UNL1        0.2315
     25 O          58.5788   94.1551   -0.1031 O.2     1  UNL1       -0.2745
     26 N          61.3122   93.6962   -0.1198 N.am    1  UNL1       -0.2546
     27 C          61.8878   93.6070    1.2625 C.3     1  UNL1        0.1249
     28 C          61.8688   93.5953   -1.5091 C.ar    1  UNL1        0.0541
     29 C          61.0002   93.9132   -2.6899 C.ar    1  UNL1        0.0146
     30 C          61.5568   93.8123   -4.0792 C.ar    1  UNL1       -0.0030
     31 C          62.9820   93.3934   -4.2876 C.ar    1  UNL1       -0.0227
     32 C          63.8505   93.0755   -3.1066 C.ar    1  UNL1       -0.0030
     33 C          63.2939   93.1764   -1.7175 C.ar    1  UNL1        0.0146
     34 C          63.5386   93.2925   -5.6768 C.3     1  UNL1        0.0189
     35 C          64.6045   92.3603   -5.1821 C.3     1  UNL1        0.0044
     36 C          62.4727   94.2248   -6.1716 C.3     1  UNL1        0.0044
     37 C          64.0952   93.1916   -7.0661 C.3     1  UNL1        0.0044
     38 C          63.2584   93.3799    1.8281 C.2     1  UNL1        0.0692
     39 O          64.2298   94.5191    1.9204 O.co2   1  UNL1       -0.5475
     40 O          63.6575   92.0137    2.3014 O.co2   1  UNL1       -0.5475
@<TRIPOS>UNITY_ATOM_ATTR
39 1
charge -1
@<TRIPOS>BOND
     1    10    11    1
     2    11    12   ar
     3    12    13   ar
     4    13    16    1
     5    16    17   ar
     6    17    18   ar
     7    18    19   ar
     8    19    20   ar
     9    20    21   ar
    10    13    14   ar
    11    14    15   ar
    12    15     9    1
    13     9     8    1
    14     8     7    1
    15     7     1    1
    16     1     2   ar
    17     2     3   ar
    18     3     4   ar
    19     4    22    1
    20    23    22    1
    21    23    24    1
    22    24    25    2
    23    24    26   am
    24    26    28    1
    25    28    29   ar
    26    29    30   ar
    27    30    31   ar
    28    31    34    1
    29    34    35    1
    30    34    36    1
    31    34    37    1
    32    31    32   ar
    33    32    33   ar
    34    26    27    1
    35    27    38    1
    36    38    39   ar
    37    38    40   ar
    38     4     5   ar
    39     5     6   ar
    40    15    11   ar
    41     6     1   ar
    42    21    16   ar
    43    27    23    1
    44    33    28   ar
@<TRIPOS>MOLECULE
*****
 40 44 0 0 0
SMALL
GASTEIGER

@<TRIPOS>ATOM
      1 C          59.3561   90.2370    5.5120 C.ar    1  UNL1        0.1385
      2 C          58.1715   91.1025    5.1993 C.ar    1  UNL1        0.0366
      3 C          58.3570   92.3808    4.4367 C.ar    1  UNL1       -0.0011
      4 C          59.7271   92.7936    3.9868 C.ar    1  UNL1       -0.0214
      5 C          60.9117   91.9282    4.2995 C.ar    1  UNL1       -0.0011
      6 C          60.7261   90.6499    5.0621 C.ar    1  UNL1        0.0366
      7 O          59.1706   88.9588    6.2746 O.3     1  UNL1       -0.4750
      8 C          59.8399   88.7749    7.6044 C.3     1  UNL1        0.2118
      9 C          59.3352   87.7353    8.5607 C.3     1  UNL1        0.0960
     10 C          59.8577   89.1565   11.4515 C.3     1  UNL1        0.0738
     11 C          60.4703   87.8722   10.9769 C.ar    1  UNL1        0.1387
     12 O          61.4306   87.0156   11.7476 O.2     1  UNL1       -0.4392
     13 C          61.7839   85.8330   10.8953 C.ar    1  UNL1        0.2289
     14 N          61.0420   85.9586    9.5977 N.ar    1  UNL1       -0.2129
     15 C          60.2301   87.2189    9.6481 C.ar    1  UNL1        0.0960
     16 C          62.7156   84.7201   11.2740 C.ar    1  UNL1        0.0535
     17 C          63.4075   83.9251   10.2066 C.ar    1  UNL1        0.0046
     18 C          64.3392   82.8123   10.5854 C.ar    1  UNL1        0.0002
     19 C          64.5790   82.4944   12.0316 C.ar    1  UNL1        0.0000
     20 C          63.8871   83.2893   13.0989 C.ar    1  UNL1        0.0002
     21 C          62.9554   84.4021   12.7202 C.ar    1  UNL1        0.0046
     22 C          59.9126   94.0719    3.2241 C.3     1  UNL1        0.0375
     23 C          60.6498   94.0657    1.9178 C.3     1  UNL1        0.1052
     24 C          62.0751   93.8463    1.5054 C.2     1  UNL1        0.2315
     25 O          63.3538   93.5422    2.2283 O.2     1  UNL1       -0.2745
     26 N          61.6924   94.0569    0.0704 N.am    1  UNL1       -0.2546
     27 C          60.2669   94.2763    0.4829 C.3     1  UNL1        0.1249
     28 C          62.4296   94.0507   -1.2359 C.ar    1  UNL1        0.0541
     29 C          62.8758   92.7519   -1.8391 C.ar    1  UNL1        0.0146
     30 C          63.6130   92.7457   -3.1454 C.ar    1  UNL1       -0.0030
     31 C          63.9040   94.0384   -3.8486 C.ar    1  UNL1       -0.0227
     32 C          63.4578   95.3372   -3.2452 C.ar    1  UNL1       -0.0030
     33 C          62.7206   95.3434   -1.9390 C.ar    1  UNL1        0.0146
     34 C          64.6413   94.0322   -5.1549 C.3     1  UNL1        0.0189
     35 C          65.0987   95.4385   -4.9034 C.3     1  UNL1        0.0044
     36 C          64.1839   92.6260   -5.4063 C.3     1  UNL1        0.0044
     37 C          65.3785   94.0260   -6.4612 C.3     1  UNL1        0.0044
     38 C          58.9883   94.5804   -0.2401 C.2     1  UNL1        0.0692
     39 O          58.7131   95.9735   -0.7234 O.co2   1  UNL1       -0.5475
     40 O          57.9851   93.4915   -0.4798 O.co2   1  UNL1       -0.5475
@<TRIPOS>UNITY_ATOM_ATTR
39 1
charge -1
@<TRIPOS>BOND
     1    10    11    1
     2    11    12   ar
     3    12    13   ar
     4    13    16    1
     5    16    17   ar
     6    17    18   ar
     7    18    19   ar
     8    19    20   ar
     9    20    21   ar
    10    13    14   ar
    11    14    15   ar
    12    15     9    1
    13     9     8    1
    14     8     7    1
    15     7     1    1
    16     1     2   ar
    17     2     3   ar
    18     3     4   ar
    19     4    22    1
    20    23    22    1
    21    23    24    1
    22    24    25    2
    23    24    26   am
    24    26    28    1
    25    28    29   ar
    26    29    30   ar
    27    30    31   ar
    28    31    34    1
    29    34    35    1
    30    34    36    1
    31    34    37    1
    32    31    32   ar
    33    32    33   ar
    34    26    27    1
    35    27    38    1
    36    38    39   ar
    37    38    40   ar
    38     4     5   ar
    39     5     6   ar
    40    15    11   ar
    41     6     1   ar
    42    21    16   ar
    43    27    23    1
    44    33    28   ar
@<TRIPOS>MOLECULE
*****
 40 44 0 0 0
SMALL
GASTEIGER

@<TRIPOS>ATOM
      1 C          59.5723   90.3165    5.4262 C.ar    1  UNL1        0.1385
      2 C          58.4007   91.2203    5.1802 C.ar    1  UNL1        0.0366
      3 C          58.5763   92.4733    4.3743 C.ar    1  UNL1       -0.0011
      4 C          59.9235   92.8222    3.8146 C.ar    1  UNL1       -0.0214
      5 C          61.0951   91.9184    4.0606 C.ar    1  UNL1       -0.0011
      6 C          60.9193   90.6655    4.8665 C.ar    1  UNL1        0.0366
      7 O          59.3966   89.0636    6.2321 O.3     1  UNL1       -0.4750
      8 C          59.7230   89.0615    7.6962 C.3     1  UNL1        0.2118
      9 C          59.4984   87.8236    8.5129 C.3     1  UNL1        0.0960
     10 C          61.4383   85.4260    7.4462 C.3     1  UNL1        0.0738
     11 C          61.5290   86.1059    8.7801 C.ar    1  UNL1        0.1387
     12 O          62.5272   85.8032    9.8580 O.2     1  UNL1       -0.4392
     13 C          62.2525   86.7182   11.0145 C.ar    1  UNL1        0.2289
     14 N          61.0845   87.5864   10.6514 N.ar    1  UNL1       -0.2129
     15 C          60.6373   87.2080    9.2705 C.ar    1  UNL1        0.0960
     16 C          63.0125   86.7579   12.3071 C.ar    1  UNL1        0.0535
     17 C          63.3298   85.4825   13.0301 C.ar    1  UNL1        0.0046
     18 C          64.0898   85.5223   14.3227 C.ar    1  UNL1        0.0002
     19 C          64.5324   86.8374   14.8923 C.ar    1  UNL1        0.0000
     20 C          64.2151   88.1128   14.1694 C.ar    1  UNL1        0.0002
     21 C          63.4552   88.0730   12.8768 C.ar    1  UNL1        0.0046
     22 C          60.0991   94.0752    3.0087 C.3     1  UNL1        0.0375
     23 C          60.8717   94.0383    1.7235 C.3     1  UNL1        0.1052
     24 C          62.3186   94.1729    1.3516 C.2     1  UNL1        0.2315
     25 O          63.5923   94.4004    2.1106 O.2     1  UNL1       -0.2745
     26 N          61.9644   93.9860   -0.0940 N.am    1  UNL1       -0.2546
     27 C          60.5174   93.8513    0.2781 C.3     1  UNL1        0.1249
     28 C          62.7370   93.9490   -1.3792 C.ar    1  UNL1        0.0541
     29 C          62.5784   92.7889   -2.3165 C.ar    1  UNL1        0.0146
     30 C          63.3510   92.7519   -3.6017 C.ar    1  UNL1       -0.0030
     31 C          64.2823   93.8753   -3.9495 C.ar    1  UNL1       -0.0227
     32 C          64.4409   95.0355   -3.0121 C.ar    1  UNL1       -0.0030
     33 C          63.6682   95.0723   -1.7270 C.ar    1  UNL1        0.0146
     34 C          65.0549   93.8383   -5.2347 C.3     1  UNL1        0.0189
     35 C          64.8912   92.3483   -5.2903 C.3     1  UNL1        0.0044
     36 C          65.2187   95.3283   -5.1791 C.3     1  UNL1        0.0044
     37 C          65.8276   93.8014   -6.5199 C.3     1  UNL1        0.0044
     38 C          59.2439   93.6239   -0.4811 C.2     1  UNL1        0.0692
     39 O          59.1426   92.4851   -1.4521 O.co2   1  UNL1       -0.5475
     40 O          58.0715   94.5353   -0.2691 O.co2   1  UNL1       -0.5475
@<TRIPOS>UNITY_ATOM_ATTR
39 1
charge -1
@<TRIPOS>BOND
     1    10    11    1
     2    11    12   ar
     3    12    13   ar
     4    13    16    1
     5    16    17   ar
     6    17    18   ar
     7    18    19   ar
     8    19    20   ar
     9    20    21   ar
    10    13    14   ar
    11    14    15   ar
    12    15     9    1
    13     9     8    1
    14     8     7    1
    15     7     1    1
    16     1     2   ar
    17     2     3   ar
    18     3     4   ar
    19     4    22    1
    20    23    22    1
    21    23    24    1
    22    24    25    2
    23    24    26   am
    24    26    28    1
    25    28    29   ar
    26    29    30   ar
    27    30    31   ar
    28    31    34    1
    29    34    35    1
    30    34    36    1
    31    34    37    1
    32    31    32   ar
    33    32    33   ar
    34    26    27    1
    35    27    38    1
    36    38    39   ar
    37    38    40   ar
    38     4     5   ar
    39     5     6   ar
    40    15    11   ar
    41     6     1   ar
    42    21    16   ar
    43    27    23    1
    44    33    28   ar
@<TRIPOS>MOLECULE
*****
 40 44 0 0 0
SMALL
GASTEIGER

@<TRIPOS>ATOM
      1 C          59.5891   90.2370    5.5541 C.ar    1  UNL1        0.1385
      2 C          58.3775   91.0879    5.3131 C.ar    1  UNL1        0.0366
      3 C          58.4897   92.3368    4.4897 C.ar    1  UNL1       -0.0011
      4 C          59.8136   92.7346    3.9074 C.ar    1  UNL1       -0.0214
      5 C          61.0252   91.8837    4.1483 C.ar    1  UNL1       -0.0011
      6 C          60.9128   90.6349    4.9717 C.ar    1  UNL1        0.0366
      7 O          59.4768   88.9883    6.3775 O.3     1  UNL1       -0.4750
      8 C          59.7337   89.0381    7.8545 C.3     1  UNL1        0.2118
      9 C          59.4889   87.8234    8.6998 C.3     1  UNL1        0.0960
     10 C          61.4112   85.4912    7.4688 C.3     1  UNL1        0.0738
     11 C          61.5162   86.0870    8.8414 C.ar    1  UNL1        0.1387
     12 O          62.5232   85.7155    9.8892 O.2     1  UNL1       -0.4392
     13 C          62.2620   86.5579   11.1026 C.ar    1  UNL1        0.2289
     14 N          61.0935   87.4500   10.8047 N.ar    1  UNL1       -0.2129
     15 C          60.6326   87.1591    9.4072 C.ar    1  UNL1        0.0960
     16 C          63.0338   86.5155   12.3881 C.ar    1  UNL1        0.0535
     17 C          63.3428   85.1976   13.0343 C.ar    1  UNL1        0.0046
     18 C          64.1145   85.1552   14.3198 C.ar    1  UNL1        0.0002
     19 C          64.5773   86.4308   14.9591 C.ar    1  UNL1        0.0000
     20 C          64.2683   87.7487   14.3130 C.ar    1  UNL1        0.0002
     21 C          63.4966   87.7911   13.0275 C.ar    1  UNL1        0.0046
     22 C          59.9258   93.9834    3.0839 C.3     1  UNL1        0.0375
     23 C          60.7010   93.9680    1.7999 C.3     1  UNL1        0.1052
     24 C          60.3418   93.9922    0.3438 C.2     1  UNL1        0.2315
     25 O          59.0587   94.0419   -0.4316 O.2     1  UNL1       -0.2745
     26 N          61.7973   93.9461   -0.0161 N.am    1  UNL1       -0.2546
     27 C          62.1565   93.9219    1.4401 C.3     1  UNL1        0.1249
     28 C          62.5725   93.9307   -1.3002 C.ar    1  UNL1        0.0541
     29 C          63.7755   94.8121   -1.4606 C.ar    1  UNL1        0.0146
     30 C          64.5507   94.7966   -2.7447 C.ar    1  UNL1       -0.0030
     31 C          64.1228   93.8997   -3.8684 C.ar    1  UNL1       -0.0227
     32 C          62.9197   93.0183   -3.7078 C.ar    1  UNL1       -0.0030
     33 C          62.1446   93.0338   -2.4238 C.ar    1  UNL1        0.0146
     34 C          64.8979   93.8843   -5.1525 C.3     1  UNL1        0.0189
     35 C          64.8031   95.3794   -5.2277 C.3     1  UNL1        0.0044
     36 C          64.9928   92.3892   -5.0772 C.3     1  UNL1        0.0044
     37 C          65.6731   93.8689   -6.4365 C.3     1  UNL1        0.0044
     38 C          63.4397   93.8722    2.2154 C.2     1  UNL1        0.0692
     39 O          64.3418   95.0701    2.2502 O.co2   1  UNL1       -0.5475
     40 O          63.8207   92.6246    2.9557 O.co2   1  UNL1       -0.5475
@<TRIPOS>UNITY_ATOM_ATTR
39 1
charge -1
@<TRIPOS>BOND
     1    10    11    1
     2    11    12   ar
     3    12    13   ar
     4    13    16    1
     5    16    17   ar
     6    17    18   ar
     7    18    19   ar
     8    19    20   ar
     9    20    21   ar
    10    13    14   ar
    11    14    15   ar
    12    15     9    1
    13     9     8    1
    14     8     7    1
    15     7     1    1
    16     1     2   ar
    17     2     3   ar
    18     3     4   ar
    19     4    22    1
    20    23    22    1
    21    23    24    1
    22    24    25    2
    23    24    26   am
    24    26    28    1
    25    28    29   ar
    26    29    30   ar
    27    30    31   ar
    28    31    34    1
    29    34    35    1
    30    34    36    1
    31    34    37    1
    32    31    32   ar
    33    32    33   ar
    34    26    27    1
    35    27    38    1
    36    38    39   ar
    37    38    40   ar
    38     4     5   ar
    39     5     6   ar
    40    15    11   ar
    41     6     1   ar
    42    21    16   ar
    43    27    23    1
    44    33    28   ar
@<TRIPOS>MOLECULE
*****
 40 44 0 0 0
SMALL
GASTEIGER

@<TRIPOS>ATOM
      1 C          59.3787   88.9379    7.2431 C.ar    1  UNL1        0.1385
      2 C          59.6594   89.9320    8.3307 C.ar    1  UNL1        0.0366
      3 C          60.3191   89.4864    9.6021 C.ar    1  UNL1       -0.0011
      4 C          60.6979   88.0467    9.7858 C.ar    1  UNL1       -0.0214
      5 C          60.4172   87.0526    8.6981 C.ar    1  UNL1       -0.0011
      6 C          59.7576   87.4983    7.4268 C.ar    1  UNL1        0.0366
      7 O          58.7192   89.3834    5.9717 O.3     1  UNL1       -0.4750
      8 C          58.9592   90.7683    5.4477 C.3     1  UNL1        0.2118
      9 C          60.3424   91.1903    5.0495 C.3     1  UNL1        0.0960
     10 C          63.0762   91.2712    3.2692 C.3     1  UNL1        0.0738
     11 C          61.8093   92.0178    2.9738 C.ar    1  UNL1        0.1387
     12 O          61.5764   92.9328    1.8082 O.2     1  UNL1       -0.4392
     13 C          60.1759   93.4611    1.9061 C.ar    1  UNL1        0.2289
     14 N          59.5432   92.8726    3.1322 N.ar    1  UNL1       -0.2129
     15 C          60.5526   91.9807    3.7921 C.ar    1  UNL1        0.0960
     16 C          59.5228   94.4110    0.9463 C.ar    1  UNL1        0.0535
     17 C          58.5816   93.8915   -0.0997 C.ar    1  UNL1        0.0046
     18 C          57.9286   94.8414   -1.0594 C.ar    1  UNL1        0.0002
     19 C          58.2167   96.3110   -0.9731 C.ar    1  UNL1        0.0000
     20 C          59.1579   96.8305    0.0729 C.ar    1  UNL1        0.0002
     21 C          59.8110   95.8806    1.0326 C.ar    1  UNL1        0.0046
     22 C          61.3575   87.6011   11.0572 C.3     1  UNL1        0.0375
     23 C          62.3611   88.4883   11.7324 C.3     1  UNL1        0.1052
     24 C          62.7661   89.9262   11.5973 C.2     1  UNL1        0.2315
     25 O          62.3355   91.0726   10.7311 O.2     1  UNL1       -0.2745
     26 N          63.7803   89.7429   12.6872 N.am    1  UNL1       -0.2546
     27 C          63.3751   88.3049   12.8223 C.3     1  UNL1        0.1249
     28 C          64.7838   90.6301   13.3624 C.ar    1  UNL1        0.0541
     29 C          64.8324   90.7037   14.8597 C.ar    1  UNL1        0.0146
     30 C          65.8359   91.5909   15.5349 C.ar    1  UNL1       -0.0030
     31 C          66.7909   92.4045   14.7126 C.ar    1  UNL1       -0.0227
     32 C          66.7422   92.3309   13.2152 C.ar    1  UNL1       -0.0030
     33 C          65.7387   91.4437   12.5401 C.ar    1  UNL1        0.0146
     34 C          67.7944   93.2917   15.3877 C.3     1  UNL1        0.0189
     35 C          67.3322   94.4494   14.5534 C.3     1  UNL1        0.0044
     36 C          68.2566   92.1340   16.2220 C.3     1  UNL1        0.0044
     37 C          68.7979   94.1789   16.0629 C.3     1  UNL1        0.0044
     38 C          63.8058   87.1586   13.6885 C.2     1  UNL1        0.0692
     39 O          64.5889   87.4180   14.9413 O.co2   1  UNL1       -0.5475
     40 O          63.4534   85.7528   13.3020 O.co2   1  UNL1       -0.5475
@<TRIPOS>UNITY_ATOM_ATTR
39 1
charge -1
@<TRIPOS>BOND
     1    10    11    1
     2    11    12   ar
     3    12    13   ar
     4    13    16    1
     5    16    17   ar
     6    17    18   ar
     7    18    19   ar
     8    19    20   ar
     9    20    21   ar
    10    13    14   ar
    11    14    15   ar
    12    15     9    1
    13     9     8    1
    14     8     7    1
    15     7     1    1
    16     1     2   ar
    17     2     3   ar
    18     3     4   ar
    19     4    22    1
    20    23    22    1
    21    23    24    1
    22    24    25    2
    23    24    26   am
    24    26    28    1
    25    28    29   ar
    26    29    30   ar
    27    30    31   ar
    28    31    34    1
    29    34    35    1
    30    34    36    1
    31    34    37    1
    32    31    32   ar
    33    32    33   ar
    34    26    27    1
    35    27    38    1
    36    38    39   ar
    37    38    40   ar
    38     4     5   ar
    39     5     6   ar
    40    15    11   ar
    41     6     1   ar
    42    21    16   ar
    43    27    23    1
    44    33    28   ar
@<TRIPOS>MOLECULE
*****
 40 44 0 0 0
SMALL
GASTEIGER

@<TRIPOS>ATOM
      1 C          59.8933   90.5641    5.3734 C.ar    1  UNL1        0.1385
      2 C          61.1671   90.9311    4.6715 C.ar    1  UNL1        0.0366
      3 C          61.2024   92.1160    3.7522 C.ar    1  UNL1       -0.0011
      4 C          59.9638   92.9337    3.5349 C.ar    1  UNL1       -0.0214
      5 C          58.6900   92.5667    4.2368 C.ar    1  UNL1       -0.0011
      6 C          58.6548   91.3819    5.1560 C.ar    1  UNL1        0.0366
      7 O          59.8580   89.3793    6.2926 O.3     1  UNL1       -0.4750
      8 C          59.8640   89.5826    7.7787 C.3     1  UNL1        0.2118
      9 C          59.9730   88.4015    8.6969 C.3     1  UNL1        0.0960
     10 C          61.1528   85.7444   10.1794 C.3     1  UNL1        0.0738
     11 C          61.5583   87.1618   10.4562 C.ar    1  UNL1        0.1387
     12 O          62.5773   87.6067   11.4630 O.2     1  UNL1       -0.4392
     13 C          62.6648   89.1030   11.4038 C.ar    1  UNL1        0.2289
     14 N          61.6999   89.5828   10.3604 N.ar    1  UNL1       -0.2129
     15 C          61.0161   88.3831    9.7747 C.ar    1  UNL1        0.0960
     16 C          63.5601   89.9676   12.2411 C.ar    1  UNL1        0.0535
     17 C          64.0185   91.2978   11.7210 C.ar    1  UNL1        0.0046
     18 C          64.9138   92.1623   12.5582 C.ar    1  UNL1        0.0002
     19 C          65.3506   91.6967   13.9156 C.ar    1  UNL1        0.0000
     20 C          64.8921   90.3666   14.4357 C.ar    1  UNL1        0.0002
     21 C          63.9969   89.5021   13.5984 C.ar    1  UNL1        0.0046
     22 C          59.9992   94.1186    2.6157 C.3     1  UNL1        0.0375
     23 C          60.6307   93.9979    1.2604 C.3     1  UNL1        0.1052
     24 C          60.1345   93.6628   -0.1148 C.2     1  UNL1        0.2315
     25 O          58.8014   93.3096   -0.7048 O.2     1  UNL1       -0.2745
     26 N          61.5238   93.8271   -0.6561 N.am    1  UNL1       -0.2546
     27 C          62.0200   94.1622    0.7193 C.3     1  UNL1        0.1249
     28 C          62.1553   93.7064   -2.0113 C.ar    1  UNL1        0.0541
     29 C          61.7679   94.6552   -3.1065 C.ar    1  UNL1        0.0146
     30 C          62.3994   94.5344   -4.4617 C.ar    1  UNL1       -0.0030
     31 C          63.4184   93.4648   -4.7217 C.ar    1  UNL1       -0.0227
     32 C          63.8058   92.5159   -3.6264 C.ar    1  UNL1       -0.0030
     33 C          63.1743   92.6367   -2.2713 C.ar    1  UNL1        0.0146
     34 C          64.0500   93.3440   -6.0769 C.3     1  UNL1        0.0189
     35 C          65.3534   92.9693   -5.4362 C.3     1  UNL1        0.0044
     36 C          62.7465   93.7187   -6.7177 C.3     1  UNL1        0.0044
     37 C          64.6815   93.2233   -7.4321 C.3     1  UNL1        0.0044
     38 C          63.3531   94.5153    1.3091 C.2     1  UNL1        0.0692
     39 O          64.4265   93.4728    1.4146 O.co2   1  UNL1       -0.5475
     40 O          63.6130   95.9110    1.7934 O.co2   1  UNL1       -0.5475
@<TRIPOS>UNITY_ATOM_ATTR
39 1
charge -1
@<TRIPOS>BOND
     1    10    11    1
     2    11    12   ar
     3    12    13   ar
     4    13    16    1
     5    16    17   ar
     6    17    18   ar
     7    18    19   ar
     8    19    20   ar
     9    20    21   ar
    10    13    14   ar
    11    14    15   ar
    12    15     9    1
    13     9     8    1
    14     8     7    1
    15     7     1    1
    16     1     2   ar
    17     2     3   ar
    18     3     4   ar
    19     4    22    1
    20    23    22    1
    21    23    24    1
    22    24    25    2
    23    24    26   am
    24    26    28    1
    25    28    29   ar
    26    29    30   ar
    27    30    31   ar
    28    31    34    1
    29    34    35    1
    30    34    36    1
    31    34    37    1
    32    31    32   ar
    33    32    33   ar
    34    26    27    1
    35    27    38    1
    36    38    39   ar
    37    38    40   ar
    38     4     5   ar
    39     5     6   ar
    40    15    11   ar
    41     6     1   ar
    42    21    16   ar
    43    27    23    1
    44    33    28   ar
@<TRIPOS>MOLECULE
*****
 40 44 0 0 0
SMALL
GASTEIGER

@<TRIPOS>ATOM
      1 C          61.4265   86.5712    8.7800 C.ar    1  UNL1        0.1385
      2 C          62.6581   87.2631    9.2843 C.ar    1  UNL1        0.0366
      3 C          62.5468   88.3038   10.3590 C.ar    1  UNL1       -0.0011
      4 C          61.2039   88.6524   10.9291 C.ar    1  UNL1       -0.0214
      5 C          59.9723   87.9604   10.4247 C.ar    1  UNL1       -0.0011
      6 C          60.0837   86.9198    9.3501 C.ar    1  UNL1        0.0366
      7 O          61.5378   85.5306    7.7054 O.3     1  UNL1       -0.4750
      8 C          62.1485   84.1958    8.0143 C.3     1  UNL1        0.2118
      9 C          63.4252   84.1184    8.7979 C.3     1  UNL1        0.0960
     10 C          63.3346   81.1704   10.1946 C.3     1  UNL1        0.0738
     11 C          63.3434   82.4868   10.9136 C.ar    1  UNL1        0.1387
     12 O          63.3121   82.6793   12.4009 O.2     1  UNL1       -0.4392
     13 C          63.3345   84.1533   12.6781 C.ar    1  UNL1        0.2289
     14 N          63.3795   84.8718   11.3621 N.ar    1  UNL1       -0.2129
     15 C          63.3851   83.8419   10.2716 C.ar    1  UNL1        0.0960
     16 C          63.3151   84.7960   14.0333 C.ar    1  UNL1        0.0535
     17 C          64.2471   85.9309   14.3386 C.ar    1  UNL1        0.0046
     18 C          64.2277   86.5735   15.6938 C.ar    1  UNL1        0.0002
     19 C          63.2763   86.0812   16.7438 C.ar    1  UNL1        0.0000
     20 C          62.3443   84.9463   16.4385 C.ar    1  UNL1        0.0002
     21 C          62.3637   84.3037   15.0833 C.ar    1  UNL1        0.0046
     22 C          61.0926   89.6930   12.0038 C.3     1  UNL1        0.0375
     23 C          62.3316   90.2461   12.6433 C.3     1  UNL1        0.1052
     24 C          62.9352   90.1842   14.0151 C.2     1  UNL1        0.2315
     25 O          62.5500   89.5436   15.3156 O.2     1  UNL1       -0.2745
     26 N          64.0838   91.0284   13.5478 N.am    1  UNL1       -0.2546
     27 C          63.4801   91.0902   12.1760 C.3     1  UNL1        0.1249
     28 C          65.3227   91.5815   14.1874 C.ar    1  UNL1        0.0541
     29 C          65.2584   92.1618   15.5690 C.ar    1  UNL1        0.0146
     30 C          66.4974   92.7149   16.2086 C.ar    1  UNL1       -0.0030
     31 C          67.8007   92.6876   15.4664 C.ar    1  UNL1       -0.0227
     32 C          67.8649   92.1073   14.0847 C.ar    1  UNL1       -0.0030
     33 C          66.6260   91.5542   13.4453 C.ar    1  UNL1        0.0146
     34 C          69.0397   93.2407   16.1060 C.3     1  UNL1        0.0189
     35 C          68.6508   94.6209   15.6657 C.3     1  UNL1        0.0044
     36 C          69.4285   91.8606   16.5463 C.3     1  UNL1        0.0044
     37 C          70.2786   93.7938   16.7456 C.3     1  UNL1        0.0044
     38 C          63.8654   91.7309   10.8756 C.2     1  UNL1        0.0692
     39 O          65.0966   92.5839   10.7955 O.co2   1  UNL1       -0.5475
     40 O          63.0194   91.5185    9.6552 O.co2   1  UNL1       -0.5475
@<TRIPOS>UNITY_ATOM_ATTR
39 1
charge -1
@<TRIPOS>BOND
     1    10    11    1
     2    11    12   ar
     3    12    13   ar
     4    13    16    1
     5    16    17   ar
     6    17    18   ar
     7    18    19   ar
     8    19    20   ar
     9    20    21   ar
    10    13    14   ar
    11    14    15   ar
    12    15     9    1
    13     9     8    1
    14     8     7    1
    15     7     1    1
    16     1     2   ar
    17     2     3   ar
    18     3     4   ar
    19     4    22    1
    20    23    22    1
    21    23    24    1
    22    24    25    2
    23    24    26   am
    24    26    28    1
    25    28    29   ar
    26    29    30   ar
    27    30    31   ar
    28    31    34    1
    29    34    35    1
    30    34    36    1
    31    34    37    1
    32    31    32   ar
    33    32    33   ar
    34    26    27    1
    35    27    38    1
    36    38    39   ar
    37    38    40   ar
    38     4     5   ar
    39     5     6   ar
    40    15    11   ar
    41     6     1   ar
    42    21    16   ar
    43    27    23    1
    44    33    28   ar
