@<TRIPOS>MOLECULE
*****
 38 40 0 0 0
SMALL
GASTEIGER

@<TRIPOS>ATOM
      1 C          62.7714   82.9827   12.7539 C.3     1  UNL1        0.1498
      2 C          63.5719   83.4623   13.9282 C.2     1  UNL1        0.2435
      3 O          64.1303   82.4744   14.9091 O.2     1  UNL1       -0.2731
      4 N          63.8139   84.9300   14.1218 N.am    1  UNL1       -0.2781
      5 C          64.6144   85.4097   15.2961 C.3     1  UNL1        0.0951
      6 C          64.8564   86.8773   15.4896 C.3     1  UNL1        0.0412
      7 C          64.2979   87.8653   14.5087 C.3     1  UNL1        0.0782
      8 C          63.4974   87.3856   13.3344 C.3     1  UNL1        0.0412
      9 C          63.2554   85.9180   13.1409 C.3     1  UNL1        0.0951
     10 N          64.5400   89.3329   14.7023 N.am    1  UNL1       -0.2722
     11 C          63.5562   90.1597   15.4760 C.2     1  UNL1        0.4019
     12 O          62.3304   89.5188   16.0562 O.2     1  UNL1       -0.2264
     13 H          65.3445   89.7536   14.3215 H       1  UNL1        0.1527
     14 O          63.7982   91.6274   15.6695 O.3     1  UNL1       -0.4291
     15 C          65.0459   92.0975   16.3567 C.3     1  UNL1        0.2447
     16 C          66.2709   92.4157   15.5517 C.ar    1  UNL1        0.0714
     17 C          66.3000   92.7793   14.0967 C.ar    1  UNL1        0.1053
     18 N          67.7290   93.0144   13.7061 N.ar    1  UNL1       -0.2350
     19 C          68.5832   92.7962   14.9198 C.ar    1  UNL1        0.1343
     20 S          67.6820   92.4262   16.0604 S.2     1  UNL1       -0.0652
     21 N          62.5114   85.1706    9.4530 N.am    1  UNL1       -0.2567
     22 C          63.2688   85.3931    8.1776 C.3     1  UNL1        0.1168
     23 C          63.0201   84.1879   10.4657 C.2     1  UNL1        0.3046
     24 O          64.2861   83.4276   10.2029 O.2     1  UNL1       -0.2526
     25 N          62.2627   83.9654   11.7412 N.am    1  UNL1       -0.2824
     26 H          61.4317   84.4644   11.9137 H       1  UNL1        0.1514
     27 C          61.2453   85.9309    9.7159 C.3     1  UNL1        0.1413
     28 C          62.1026   89.5596   10.7944 C.ar    1  UNL1        0.0875
     29 N          62.4730   88.2700   10.1237 N.ar    1  UNL1       -0.2453
     30 C          61.3086   87.3325   10.2465 C.ar    1  UNL1        0.0858
     31 C          60.2185   88.0427   10.9931 C.ar    1  UNL1        0.0530
     32 S          60.7092   89.4191   11.3317 S.2     1  UNL1       -0.0705
     33 C          63.2682   91.6029    9.6916 C.3     1  UNL1        0.0069
     34 C          62.9728   90.7761   10.9077 C.3     1  UNL1        0.0465
     35 C          63.5477   91.1658   12.2373 C.3     1  UNL1        0.0069
     36 C          62.4795   81.5202   12.5921 C.3     1  UNL1        0.0270
     37 C          61.5766   80.8234   13.5663 C.3     1  UNL1        0.0022
     38 C          63.0907   80.7546   11.4562 C.3     1  UNL1        0.0022
@<TRIPOS>BOND
     1    33    34    1
     2    34    35    1
     3    34    28    1
     4    28    29   ar
     5    29    30   ar
     6    30    27    1
     7    27    21    1
     8    21    22    1
     9    21    23   am
    10    23    24    2
    11    23    25   am
    12     1    25    1
    13     1     2    1
    14     2     3    2
    15     2     4   am
    16     4     5    1
    17     5     6    1
    18     6     7    1
    19     7    10    1
    20    10    11   am
    21    11    12    2
    22    11    14    1
    23    14    15    1
    24    15    16    1
    25    16    17   ar
    26    17    18   ar
    27    18    19   ar
    28    19    20   ar
    29     7     8    1
    30     8     9    1
    31     1    36    1
    32    36    37    1
    33    36    38    1
    34    30    31   ar
    35    31    32   ar
    36    32    28   ar
    37     9     4    1
    38    20    16   ar
    39    25    26    1
    40    10    13    1
@<TRIPOS>MOLECULE
*****
 38 40 0 0 0
SMALL
GASTEIGER

@<TRIPOS>ATOM
      1 C          64.2133   90.7749   14.8729 C.3     1  UNL1        0.1498
      2 C          63.6392   89.9454   15.9830 C.2     1  UNL1        0.2435
      3 O          62.9991   90.6128   17.1640 O.2     1  UNL1       -0.2731
      4 N          63.7051   88.4485   15.9120 N.am    1  UNL1       -0.2781
      5 C          63.1310   87.6190   17.0221 C.3     1  UNL1        0.0951
      6 C          63.1970   86.1222   16.9511 C.3     1  UNL1        0.0412
      7 C          63.8371   85.4548   15.7700 C.3     1  UNL1        0.0782
      8 C          64.4112   86.2843   14.6600 C.3     1  UNL1        0.0412
      9 C          64.3452   87.7811   14.7310 C.3     1  UNL1        0.0951
     10 N          63.9030   83.9579   15.6991 N.am    1  UNL1       -0.2722
     11 C          62.8053   83.1900   15.0244 C.2     1  UNL1        0.4019
     12 O          61.6417   83.9188   14.4205 O.2     1  UNL1       -0.2264
     13 H          64.6668   83.4795   16.0954 H       1  UNL1        0.1527
     14 O          62.8713   81.6930   14.9534 O.3     1  UNL1       -0.4291
     15 C          62.7870   81.0007   13.6254 C.3     1  UNL1        0.2447
     16 C          63.4411   81.6083   12.4201 C.ar    1  UNL1        0.0714
     17 C          64.6032   82.5566   12.4315 C.ar    1  UNL1        0.1053
     18 N          64.9282   82.9087   11.0101 N.ar    1  UNL1       -0.2350
     19 C          63.9669   82.1779   10.1202 C.ar    1  UNL1        0.1343
     20 S          63.0478   81.3742   10.9916 S.2     1  UNL1       -0.0652
     21 N          63.4380   91.5961   11.0683 N.am    1  UNL1       -0.2567
     22 C          64.1276   92.1801    9.8711 C.3     1  UNL1        0.1168
     23 C          64.1705   91.4775   12.3720 C.2     1  UNL1        0.3046
     24 O          65.5925   91.9428   12.4783 O.2     1  UNL1       -0.2526
     25 N          63.4809   90.8935   13.5693 N.am    1  UNL1       -0.2824
     26 H          62.5475   90.5881   13.4995 H       1  UNL1        0.1514
     27 C          62.0160   91.1307   10.9620 C.3     1  UNL1        0.1413
     28 C          61.8288   87.4051    9.8896 C.ar    1  UNL1        0.0875
     29 N          62.4827   88.5167   10.6557 N.ar    1  UNL1       -0.2453
     30 C          61.7106   89.7760   10.3951 C.ar    1  UNL1        0.0858
     31 C          60.5795   89.4427    9.4679 C.ar    1  UNL1        0.0530
     32 S          60.6526   87.9774    9.1555 S.2     1  UNL1       -0.0705
     33 C          62.8570   85.3922    8.6086 C.3     1  UNL1        0.0069
     34 C          62.2731   85.9727    9.8624 C.3     1  UNL1        0.0465
     35 C          62.1336   85.1207   11.0891 C.3     1  UNL1        0.0069
     36 C          65.5200   91.4858   15.0664 C.3     1  UNL1        0.0270
     37 C          66.7954   90.8523   14.5954 C.3     1  UNL1        0.0022
     38 C          65.5511   92.8302   15.7309 C.3     1  UNL1        0.0022
@<TRIPOS>BOND
     1    33    34    1
     2    34    35    1
     3    34    28    1
     4    28    29   ar
     5    29    30   ar
     6    30    27    1
     7    27    21    1
     8    21    22    1
     9    21    23   am
    10    23    24    2
    11    23    25   am
    12     1    25    1
    13     1     2    1
    14     2     3    2
    15     2     4   am
    16     4     5    1
    17     5     6    1
    18     6     7    1
    19     7    10    1
    20    10    11   am
    21    11    12    2
    22    11    14    1
    23    14    15    1
    24    15    16    1
    25    16    17   ar
    26    17    18   ar
    27    18    19   ar
    28    19    20   ar
    29     7     8    1
    30     8     9    1
    31     1    36    1
    32    36    37    1
    33    36    38    1
    34    30    31   ar
    35    31    32   ar
    36    32    28   ar
    37     9     4    1
    38    20    16   ar
    39    25    26    1
    40    10    13    1
@<TRIPOS>MOLECULE
*****
 38 40 0 0 0
SMALL
GASTEIGER

@<TRIPOS>ATOM
      1 C          65.9089   92.3889   14.9666 C.3     1  UNL1        0.1498
      2 C          64.9269   91.8581   15.9686 C.2     1  UNL1        0.2435
      3 O          64.4121   92.7499   17.0593 O.2     1  UNL1       -0.2731
      4 N          64.4597   90.4355   15.8798 N.am    1  UNL1       -0.2781
      5 C          63.4777   89.9046   16.8817 C.3     1  UNL1        0.0951
      6 C          63.0106   88.4820   16.7929 C.3     1  UNL1        0.0412
      7 C          63.5253   87.5903   15.7021 C.3     1  UNL1        0.0782
      8 C          64.5073   88.1211   14.7002 C.3     1  UNL1        0.0412
      9 C          64.9745   89.5437   14.7890 C.3     1  UNL1        0.0951
     10 N          63.0581   86.1676   15.6134 N.am    1  UNL1       -0.2722
     11 C          64.0266   85.0814   15.2499 C.2     1  UNL1        0.4019
     12 O          65.4624   85.4178   14.9752 O.2     1  UNL1       -0.2264
     13 H          62.1158   85.9468   15.7937 H       1  UNL1        0.1527
     14 O          63.5594   83.6588   15.1611 O.3     1  UNL1       -0.4291
     15 C          62.7228   83.2153   13.9978 C.3     1  UNL1        0.2447
     16 C          63.3039   83.2098   12.6150 C.ar    1  UNL1        0.0714
     17 C          64.4271   82.3397   12.1341 C.ar    1  UNL1        0.1053
     18 N          64.6813   82.6655   10.6922 N.ar    1  UNL1       -0.2350
     19 C          63.7151   83.7371   10.2819 C.ar    1  UNL1        0.1343
     20 S          62.8639   84.0734   11.4702 S.2     1  UNL1       -0.0652
     21 N          66.2093   92.4683   11.0102 N.am    1  UNL1       -0.2567
     22 C          67.2677   92.3759    9.9513 C.3     1  UNL1        0.1168
     23 C          66.5883   92.3824   12.4589 C.2     1  UNL1        0.3046
     24 O          68.0257   92.2042   12.8489 O.2     1  UNL1       -0.2526
     25 N          65.5299   92.4748   13.5178 N.am    1  UNL1       -0.2824
     26 H          64.5864   92.5918   13.2619 H       1  UNL1        0.1514
     27 C          64.7718   92.6465   10.6203 C.3     1  UNL1        0.1413
     28 C          62.2348   89.7239   10.3243 C.ar    1  UNL1        0.0875
     29 N          63.1131   90.7651    9.6962 N.ar    1  UNL1       -0.2453
     30 C          63.8012   91.5166   10.7969 C.ar    1  UNL1        0.0858
     31 C          63.3482   90.9398   12.1054 C.ar    1  UNL1        0.0530
     32 S          62.3802   89.8318   11.8133 S.2     1  UNL1       -0.0705
     33 C          60.1524   89.2294    8.8517 C.3     1  UNL1        0.0069
     34 C          61.3642   88.7463    9.5920 C.3     1  UNL1        0.0465
     35 C          61.7053   87.2856    9.6000 C.3     1  UNL1        0.0069
     36 C          67.2699   92.8340   15.4134 C.3     1  UNL1        0.0270
     37 C          68.1967   91.8599   16.0783 C.3     1  UNL1        0.0022
     38 C          67.7041   94.2531   15.1953 C.3     1  UNL1        0.0022
@<TRIPOS>BOND
     1    33    34    1
     2    34    35    1
     3    34    28    1
     4    28    29   ar
     5    29    30   ar
     6    30    27    1
     7    27    21    1
     8    21    22    1
     9    21    23   am
    10    23    24    2
    11    23    25   am
    12     1    25    1
    13     1     2    1
    14     2     3    2
    15     2     4   am
    16     4     5    1
    17     5     6    1
    18     6     7    1
    19     7    10    1
    20    10    11   am
    21    11    12    2
    22    11    14    1
    23    14    15    1
    24    15    16    1
    25    16    17   ar
    26    17    18   ar
    27    18    19   ar
    28    19    20   ar
    29     7     8    1
    30     8     9    1
    31     1    36    1
    32    36    37    1
    33    36    38    1
    34    30    31   ar
    35    31    32   ar
    36    32    28   ar
    37     9     4    1
    38    20    16   ar
    39    25    26    1
    40    10    13    1
@<TRIPOS>MOLECULE
*****
 38 40 0 0 0
SMALL
GASTEIGER

@<TRIPOS>ATOM
      1 C          60.6333   87.0415   10.1787 C.3     1  UNL1        0.1498
      2 C          60.5063   88.1991   11.1241 C.2     1  UNL1        0.2435
      3 O          59.3321   88.2828   12.0538 O.2     1  UNL1       -0.2731
      4 N          61.5535   89.2729   11.1399 N.am    1  UNL1       -0.2781
      5 C          61.4265   90.4305   12.0853 C.3     1  UNL1        0.0951
      6 C          62.4737   91.5043   12.1011 C.3     1  UNL1        0.0412
      7 C          63.6479   91.4206   11.1714 C.3     1  UNL1        0.0782
      8 C          63.7749   90.2630   10.2260 C.3     1  UNL1        0.0412
      9 C          62.7277   89.1892   10.2102 C.3     1  UNL1        0.0951
     10 N          64.6951   92.4944   11.1872 N.am    1  UNL1       -0.2722
     11 C          65.6678   92.5767   12.3260 C.2     1  UNL1        0.4019
     12 O          65.5934   91.5852   13.4491 O.2     1  UNL1       -0.2264
     13 H          64.7439   93.1452   10.4501 H       1  UNL1        0.1527
     14 O          66.7150   93.6506   12.3418 O.3     1  UNL1       -0.4291
     15 C          66.3820   95.0302   11.8561 C.3     1  UNL1        0.2447
     16 C          66.7739   95.4527   10.4713 C.ar    1  UNL1        0.0714
     17 C          67.2508   94.5468    9.3749 C.ar    1  UNL1        0.1053
     18 N          67.5294   95.3895    8.1656 N.ar    1  UNL1       -0.2350
     19 C          67.2247   96.8162    8.5147 C.ar    1  UNL1        0.1343
     20 S          66.7578   96.8552    9.9397 S.2     1  UNL1       -0.0652
     21 N          63.1194   83.9564   10.4049 N.am    1  UNL1       -0.2567
     22 C          64.3390   83.4295    9.7085 C.3     1  UNL1        0.1168
     23 C          62.4862   85.2355    9.9436 C.2     1  UNL1        0.3046
     24 O          63.0725   85.9878    8.7859 O.2     1  UNL1       -0.2526
     25 N          61.2665   85.7623   10.6400 N.am    1  UNL1       -0.2824
     26 H          60.8817   85.2686   11.3998 H       1  UNL1        0.1514
     27 C          62.5330   83.2041   11.5626 C.3     1  UNL1        0.1413
     28 C          63.3428   85.0014   14.9061 C.ar    1  UNL1        0.0875
     29 N          63.0662   85.0384   13.4323 N.ar    1  UNL1       -0.2453
     30 C          62.8413   83.6302   12.9674 C.ar    1  UNL1        0.0858
     31 C          62.9789   82.7228   14.1538 C.ar    1  UNL1        0.0530
     32 S          63.2888   83.5703   15.3521 S.2     1  UNL1       -0.0705
     33 C          64.3876   87.3573   15.2346 C.3     1  UNL1        0.0069
     34 C          63.6239   86.1874   15.7805 C.3     1  UNL1        0.0465
     35 C          63.1414   86.2034   17.2007 C.3     1  UNL1        0.0069
     36 C          60.1270   87.1630    8.7719 C.3     1  UNL1        0.0270
     37 C          59.7363   88.5055    8.2288 C.3     1  UNL1        0.0022
     38 C          60.0115   85.9420    7.9083 C.3     1  UNL1        0.0022
@<TRIPOS>BOND
     1    33    34    1
     2    34    35    1
     3    34    28    1
     4    28    29   ar
     5    29    30   ar
     6    30    27    1
     7    27    21    1
     8    21    22    1
     9    21    23   am
    10    23    24    2
    11    23    25   am
    12     1    25    1
    13     1     2    1
    14     2     3    2
    15     2     4   am
    16     4     5    1
    17     5     6    1
    18     6     7    1
    19     7    10    1
    20    10    11   am
    21    11    12    2
    22    11    14    1
    23    14    15    1
    24    15    16    1
    25    16    17   ar
    26    17    18   ar
    27    18    19   ar
    28    19    20   ar
    29     7     8    1
    30     8     9    1
    31     1    36    1
    32    36    37    1
    33    36    38    1
    34    30    31   ar
    35    31    32   ar
    36    32    28   ar
    37     9     4    1
    38    20    16   ar
    39    25    26    1
    40    10    13    1
@<TRIPOS>MOLECULE
*****
 38 40 0 0 0
SMALL
GASTEIGER

@<TRIPOS>ATOM
      1 C          65.2926   91.0733   14.5437 C.3     1  UNL1        0.1498
      2 C          64.9704   91.7148   13.2267 C.2     1  UNL1        0.2435
      3 O          65.5355   93.0630   12.8909 O.2     1  UNL1       -0.2731
      4 N          64.0829   91.0079   12.2454 N.am    1  UNL1       -0.2781
      5 C          63.7607   91.6494   10.9283 C.3     1  UNL1        0.0951
      6 C          62.8733   90.9426    9.9471 C.3     1  UNL1        0.0412
      7 C          62.3081   89.5943   10.2829 C.3     1  UNL1        0.0782
      8 C          62.6304   88.9528   11.5999 C.3     1  UNL1        0.0412
      9 C          63.5178   89.6597   12.5812 C.3     1  UNL1        0.0951
     10 N          61.4207   88.8875    9.3016 N.am    1  UNL1       -0.2722
     11 C          60.0261   89.3837    9.0588 C.2     1  UNL1        0.4019
     12 O          59.5190   90.5867    9.7974 O.2     1  UNL1       -0.2264
     13 H          61.7535   88.0979    8.8168 H       1  UNL1        0.1527
     14 O          59.1387   88.6769    8.0775 O.3     1  UNL1       -0.4291
     15 C          59.4108   88.7859    6.6065 C.3     1  UNL1        0.2447
     16 C          59.0861   90.0550    5.8758 C.ar    1  UNL1        0.0714
     17 C          57.7160   90.6326    5.6778 C.ar    1  UNL1        0.1053
     18 N          57.8576   91.9039    4.8945 N.ar    1  UNL1       -0.2350
     19 C          59.3154   92.1121    4.6084 C.ar    1  UNL1        0.1343
     20 S          60.0746   90.9694    5.2149 S.2     1  UNL1       -0.0652
     21 N          63.7126   87.6744   15.8479 N.am    1  UNL1       -0.2567
     22 C          62.6123   87.2102   16.7556 C.3     1  UNL1        0.1168
     23 C          63.9524   89.1417   15.6497 C.2     1  UNL1        0.3046
     24 O          63.0921   90.1449   16.3592 O.2     1  UNL1       -0.2526
     25 N          65.0527   89.6059   14.7419 N.am    1  UNL1       -0.2824
     26 H          65.6174   88.9475   14.2763 H       1  UNL1        0.1514
     27 C          64.5730   86.6712   15.1384 C.3     1  UNL1        0.1413
     28 C          63.1019   83.3402   13.7944 C.ar    1  UNL1        0.0875
     29 N          63.7894   84.1299   14.8686 N.ar    1  UNL1       -0.2453
     30 C          63.9394   85.5410   14.3825 C.ar    1  UNL1        0.0858
     31 C          63.3447   85.6234   13.0080 C.ar    1  UNL1        0.0530
     32 S          62.8271   84.2633   12.6444 S.2     1  UNL1       -0.0705
     33 C          63.7955   80.8467   13.5686 C.3     1  UNL1        0.0069
     34 C          62.7510   81.8833   13.8588 C.3     1  UNL1        0.0465
     35 C          61.3554   81.4630   14.2136 C.3     1  UNL1        0.0069
     36 C          65.8548   91.8992   15.6626 C.3     1  UNL1        0.0270
     37 C          64.9421   92.4611   16.7120 C.3     1  UNL1        0.0022
     38 C          67.3298   92.1632   15.7321 C.3     1  UNL1        0.0022
@<TRIPOS>BOND
     1    33    34    1
     2    34    35    1
     3    34    28    1
     4    28    29   ar
     5    29    30   ar
     6    30    27    1
     7    27    21    1
     8    21    22    1
     9    21    23   am
    10    23    24    2
    11    23    25   am
    12     1    25    1
    13     1     2    1
    14     2     3    2
    15     2     4   am
    16     4     5    1
    17     5     6    1
    18     6     7    1
    19     7    10    1
    20    10    11   am
    21    11    12    2
    22    11    14    1
    23    14    15    1
    24    15    16    1
    25    16    17   ar
    26    17    18   ar
    27    18    19   ar
    28    19    20   ar
    29     7     8    1
    30     8     9    1
    31     1    36    1
    32    36    37    1
    33    36    38    1
    34    30    31   ar
    35    31    32   ar
    36    32    28   ar
    37     9     4    1
    38    20    16   ar
    39    25    26    1
    40    10    13    1
@<TRIPOS>MOLECULE
*****
 38 40 0 0 0
SMALL
GASTEIGER

@<TRIPOS>ATOM
      1 C          65.3912   91.3183   14.6581 C.3     1  UNL1        0.1498
      2 C          65.1291   91.9902   13.3428 C.2     1  UNL1        0.2435
      3 O          65.7453   93.3253   13.0468 O.2     1  UNL1       -0.2731
      4 N          64.2508   91.3269   12.3236 N.am    1  UNL1       -0.2781
      5 C          63.9888   91.9988   11.0084 C.3     1  UNL1        0.0951
      6 C          63.1105   91.3355    9.9893 C.3     1  UNL1        0.0412
      7 C          62.4943   90.0004   10.2854 C.3     1  UNL1        0.0782
      8 C          62.7563   89.3285   11.6006 C.3     1  UNL1        0.0412
      9 C          63.6346   89.9918   12.6197 C.3     1  UNL1        0.0951
     10 N          61.6160   89.3371    9.2661 N.am    1  UNL1       -0.2722
     11 C          60.2392   88.8793    9.6467 C.2     1  UNL1        0.4019
     12 O          59.7406   89.0847   11.0464 O.2     1  UNL1       -0.2264
     13 H          61.9432   89.2023    8.3475 H       1  UNL1        0.1527
     14 O          59.3609   88.2160    8.6275 O.3     1  UNL1       -0.4291
     15 C          59.4125   86.7278    8.4476 C.3     1  UNL1        0.2447
     16 C          60.7149   86.0557    8.1281 C.ar    1  UNL1        0.0714
     17 C          61.0430   85.3273    6.8585 C.ar    1  UNL1        0.1053
     18 N          62.4487   84.8155    6.9677 N.ar    1  UNL1       -0.2350
     19 C          62.9894   85.2276    8.3048 C.ar    1  UNL1        0.1343
     20 S          61.9179   85.9940    9.0219 S.2     1  UNL1       -0.0652
     21 N          63.6798   87.9656   15.9152 N.am    1  UNL1       -0.2567
     22 C          62.5746   87.5311   16.8315 C.3     1  UNL1        0.1168
     23 C          63.9828   89.4247   15.7448 C.2     1  UNL1        0.3046
     24 O          63.1807   90.4494   16.4908 O.2     1  UNL1       -0.2526
     25 N          65.0881   89.8592   14.8284 N.am    1  UNL1       -0.2824
     26 H          65.6146   89.1866   14.3388 H       1  UNL1        0.1514
     27 C          64.4820   86.9409   15.1691 C.3     1  UNL1        0.1413
     28 C          63.1748   83.6505   13.5785 C.ar    1  UNL1        0.0875
     29 N          63.9123   84.9526   13.4758 N.ar    1  UNL1       -0.2453
     30 C          63.8688   85.6172   14.8198 C.ar    1  UNL1        0.0858
     31 C          63.1044   84.7259   15.7531 C.ar    1  UNL1        0.0530
     32 S          62.6755   83.5103   14.9860 S.2     1  UNL1       -0.0705
     33 C          63.5236   82.9448   11.1026 C.3     1  UNL1        0.0069
     34 C          62.9722   82.6620   12.4686 C.3     1  UNL1        0.0465
     35 C          62.2183   81.3908   12.7247 C.3     1  UNL1        0.0069
     36 C          65.9563   92.1056   15.8030 C.3     1  UNL1        0.0270
     37 C          67.4380   92.3119   15.9124 C.3     1  UNL1        0.0022
     38 C          65.0397   92.6866   16.8386 C.3     1  UNL1        0.0022
@<TRIPOS>BOND
     1    33    34    1
     2    34    35    1
     3    34    28    1
     4    28    29   ar
     5    29    30   ar
     6    30    27    1
     7    27    21    1
     8    21    22    1
     9    21    23   am
    10    23    24    2
    11    23    25   am
    12     1    25    1
    13     1     2    1
    14     2     3    2
    15     2     4   am
    16     4     5    1
    17     5     6    1
    18     6     7    1
    19     7    10    1
    20    10    11   am
    21    11    12    2
    22    11    14    1
    23    14    15    1
    24    15    16    1
    25    16    17   ar
    26    17    18   ar
    27    18    19   ar
    28    19    20   ar
    29     7     8    1
    30     8     9    1
    31     1    36    1
    32    36    37    1
    33    36    38    1
    34    30    31   ar
    35    31    32   ar
    36    32    28   ar
    37     9     4    1
    38    20    16   ar
    39    25    26    1
    40    10    13    1
@<TRIPOS>MOLECULE
*****
 38 40 0 0 0
SMALL
GASTEIGER

@<TRIPOS>ATOM
      1 C          62.4372   84.8750   10.8558 C.3     1  UNL1        0.1498
      2 C          61.6858   86.1551   10.6394 C.2     1  UNL1        0.2435
      3 O          60.5128   86.1874    9.7051 O.2     1  UNL1       -0.2731
      4 N          62.1076   87.4029   11.3571 N.am    1  UNL1       -0.2781
      5 C          61.3562   88.6830   11.1407 C.3     1  UNL1        0.0951
      6 C          61.7780   89.9307   11.8585 C.3     1  UNL1        0.0412
      7 C          62.9511   89.8984   12.7927 C.3     1  UNL1        0.0782
      8 C          63.7024   88.6183   13.0092 C.3     1  UNL1        0.0412
      9 C          63.2807   87.3706   12.2914 C.3     1  UNL1        0.0951
     10 N          63.3728   91.1462   13.5105 N.am    1  UNL1       -0.2722
     11 C          64.5869   91.1309   14.3911 C.2     1  UNL1        0.4019
     12 O          65.3794   89.8678   14.5541 O.2     1  UNL1       -0.2264
     13 H          62.8527   91.9752   13.4036 H       1  UNL1        0.1527
     14 O          65.0087   92.3787   15.1089 O.3     1  UNL1       -0.4291
     15 C          66.2226   93.1325   14.6527 C.3     1  UNL1        0.2447
     16 C          66.6838   93.0208   13.2298 C.ar    1  UNL1        0.0714
     17 C          67.7735   92.1225   12.7240 C.ar    1  UNL1        0.1053
     18 N          67.8995   92.3343   11.2444 N.ar    1  UNL1       -0.2350
     19 C          66.8877   93.3635   10.8357 C.ar    1  UNL1        0.1343
     20 S          66.1364   93.7878   12.0627 S.2     1  UNL1       -0.0652
     21 N          62.2746   81.8190   13.3825 N.am    1  UNL1       -0.2567
     22 C          62.5311   80.3411   13.3925 C.3     1  UNL1        0.1168
     23 C          62.4841   82.6080   12.1241 C.2     1  UNL1        0.3046
     24 O          62.9502   81.9193   10.8758 O.2     1  UNL1       -0.2526
     25 N          62.2276   84.0860   12.1142 N.am    1  UNL1       -0.2824
     26 H          61.9217   84.5380   12.9335 H       1  UNL1        0.1514
     27 C          61.8085   82.5078   14.6309 C.3     1  UNL1        0.1413
     28 C          63.1062   85.7456   16.3333 C.ar    1  UNL1        0.0875
     29 N          62.0080   84.7637   16.0508 N.ar    1  UNL1       -0.2453
     30 C          62.5625   83.6914   15.1604 C.ar    1  UNL1        0.0858
     31 C          64.0035   84.0107   14.8926 C.ar    1  UNL1        0.0530
     32 S          64.3395   85.2802   15.6175 S.2     1  UNL1       -0.0705
     33 C          62.6923   86.8524   18.6470 C.3     1  UNL1        0.0069
     34 C          62.9913   86.9767   17.1824 C.3     1  UNL1        0.0465
     35 C          63.1754   88.3322   16.5670 C.3     1  UNL1        0.0069
     36 C          63.3982   84.3840    9.8139 C.3     1  UNL1        0.0270
     37 C          64.6274   83.6286   10.2239 C.3     1  UNL1        0.0022
     38 C          63.1298   84.6485    8.3620 C.3     1  UNL1        0.0022
@<TRIPOS>BOND
     1    33    34    1
     2    34    35    1
     3    34    28    1
     4    28    29   ar
     5    29    30   ar
     6    30    27    1
     7    27    21    1
     8    21    22    1
     9    21    23   am
    10    23    24    2
    11    23    25   am
    12     1    25    1
    13     1     2    1
    14     2     3    2
    15     2     4   am
    16     4     5    1
    17     5     6    1
    18     6     7    1
    19     7    10    1
    20    10    11   am
    21    11    12    2
    22    11    14    1
    23    14    15    1
    24    15    16    1
    25    16    17   ar
    26    17    18   ar
    27    18    19   ar
    28    19    20   ar
    29     7     8    1
    30     8     9    1
    31     1    36    1
    32    36    37    1
    33    36    38    1
    34    30    31   ar
    35    31    32   ar
    36    32    28   ar
    37     9     4    1
    38    20    16   ar
    39    25    26    1
    40    10    13    1
@<TRIPOS>MOLECULE
*****
 38 40 0 0 0
SMALL
GASTEIGER

@<TRIPOS>ATOM
      1 C          60.8586   86.7154    9.1024 C.3     1  UNL1        0.1498
      2 C          61.0153   88.2008    9.2395 C.2     1  UNL1        0.2435
      3 O          60.3284   89.1198    8.2732 O.2     1  UNL1       -0.2731
      4 N          61.8590   88.7674   10.3428 N.am    1  UNL1       -0.2781
      5 C          62.0156   90.2529   10.4799 C.3     1  UNL1        0.0951
      6 C          62.8593   90.8194   11.5832 C.3     1  UNL1        0.0412
      7 C          63.5462   89.9004   12.5494 C.3     1  UNL1        0.0782
      8 C          63.3896   88.4150   12.4124 C.3     1  UNL1        0.0412
      9 C          62.5459   87.8485   11.3091 C.3     1  UNL1        0.0951
     10 N          64.3899   90.4670   13.6528 N.am    1  UNL1       -0.2722
     11 C          63.8246   90.6016   15.0356 C.2     1  UNL1        0.4019
     12 O          62.4156   90.1697   15.3152 O.2     1  UNL1       -0.2264
     13 H          65.3147   90.7505   13.4693 H       1  UNL1        0.1527
     14 O          64.6682   91.1682   16.1390 O.3     1  UNL1       -0.4291
     15 C          65.3623   92.4847   15.9519 C.3     1  UNL1        0.2447
     16 C          66.7542   92.5261   15.3944 C.ar    1  UNL1        0.0714
     17 C          67.1424   92.2538   13.9713 C.ar    1  UNL1        0.1053
     18 N          68.6304   92.4065   13.8594 N.ar    1  UNL1       -0.2350
     19 C          69.1618   92.7732   15.2134 C.ar    1  UNL1        0.1343
     20 S          68.0022   92.8471   16.1620 S.2     1  UNL1       -0.0652
     21 N          63.2529   84.1200   10.9140 N.am    1  UNL1       -0.2567
     22 C          64.5108   83.3521   10.6353 C.3     1  UNL1        0.1168
     23 C          62.6848   85.0337    9.8688 C.2     1  UNL1        0.3046
     24 O          63.3747   85.1795    8.5449 O.2     1  UNL1       -0.2526
     25 N          61.4267   85.8017   10.1476 N.am    1  UNL1       -0.2824
     26 H          60.9739   85.7060   11.0165 H       1  UNL1        0.1514
     27 C          62.5629   83.9743   12.2380 C.3     1  UNL1        0.1413
     28 C          63.4300   85.7455   15.5811 C.ar    1  UNL1        0.0875
     29 N          62.4343   85.3253   14.5409 N.ar    1  UNL1       -0.2453
     30 C          63.1706   84.5754   13.4706 C.ar    1  UNL1        0.0858
     31 C          64.6214   84.5323   13.8493 C.ar    1  UNL1        0.0530
     32 S          64.7817   85.2554   15.1537 S.2     1  UNL1       -0.0705
     33 C          62.6752   85.8018   18.0664 C.3     1  UNL1        0.0069
     34 C          63.1271   86.5200   16.8295 C.3     1  UNL1        0.0465
     35 C          63.2762   88.0125   16.8410 C.3     1  UNL1        0.0069
     36 C          60.1339   86.1436    7.9201 C.3     1  UNL1        0.0270
     37 C          58.7080   86.5276    7.6569 C.3     1  UNL1        0.0022
     38 C          60.8350   85.1877    7.0010 C.3     1  UNL1        0.0022
@<TRIPOS>BOND
     1    33    34    1
     2    34    35    1
     3    34    28    1
     4    28    29   ar
     5    29    30   ar
     6    30    27    1
     7    27    21    1
     8    21    22    1
     9    21    23   am
    10    23    24    2
    11    23    25   am
    12     1    25    1
    13     1     2    1
    14     2     3    2
    15     2     4   am
    16     4     5    1
    17     5     6    1
    18     6     7    1
    19     7    10    1
    20    10    11   am
    21    11    12    2
    22    11    14    1
    23    14    15    1
    24    15    16    1
    25    16    17   ar
    26    17    18   ar
    27    18    19   ar
    28    19    20   ar
    29     7     8    1
    30     8     9    1
    31     1    36    1
    32    36    37    1
    33    36    38    1
    34    30    31   ar
    35    31    32   ar
    36    32    28   ar
    37     9     4    1
    38    20    16   ar
    39    25    26    1
    40    10    13    1
@<TRIPOS>MOLECULE
*****
 38 40 0 0 0
SMALL
GASTEIGER

@<TRIPOS>ATOM
      1 C          60.7167   89.7322   11.6242 C.3     1  UNL1        0.1498
      2 C          61.0787   88.9880   10.3732 C.2     1  UNL1        0.2435
      3 O          60.8379   89.6144    9.0317 O.2     1  UNL1       -0.2731
      4 N          61.6815   87.6174   10.4637 N.am    1  UNL1       -0.2781
      5 C          62.0434   86.8732    9.2126 C.3     1  UNL1        0.0951
      6 C          62.6462   85.5027    9.3031 C.3     1  UNL1        0.0412
      7 C          62.8869   84.8763   10.6446 C.3     1  UNL1        0.0782
      8 C          62.5249   85.6204   11.8957 C.3     1  UNL1        0.0412
      9 C          61.9222   86.9910   11.8052 C.3     1  UNL1        0.0951
     10 N          63.4897   83.5056   10.7351 N.am    1  UNL1       -0.2722
     11 C          64.4277   83.1714   11.8568 C.2     1  UNL1        0.4019
     12 O          64.7631   84.2077   12.8881 O.2     1  UNL1       -0.2264
     13 H          63.2696   82.8255   10.0582 H       1  UNL1        0.1527
     14 O          65.0305   81.8007   11.9472 O.3     1  UNL1       -0.4291
     15 C          64.5159   80.8204   12.9592 C.3     1  UNL1        0.2447
     16 C          63.1340   80.9779   13.5206 C.ar    1  UNL1        0.0714
     17 C          62.6410   82.1349   14.3382 C.ar    1  UNL1        0.1053
     18 N          61.2046   81.8782   14.6860 N.ar    1  UNL1       -0.2350
     19 C          60.8099   80.5624   14.0833 C.ar    1  UNL1        0.1343
     20 S          62.0023   80.0061   13.3631 S.2     1  UNL1       -0.0652
     21 N          64.0467   91.3275   13.0791 N.am    1  UNL1       -0.2567
     22 C          65.2331   92.1096   12.5990 C.3     1  UNL1        0.1168
     23 C          62.9749   90.9209   12.1116 C.2     1  UNL1        0.3046
     24 O          63.0897   91.2965   10.6639 O.2     1  UNL1       -0.2526
     25 N          61.7884   90.1387   12.5918 N.am    1  UNL1       -0.2824
     26 H          61.7131   89.8922   13.5419 H       1  UNL1        0.1514
     27 C          63.9319   90.9518   14.5268 C.3     1  UNL1        0.1413
     28 C          63.4199   87.4478   16.1159 C.ar    1  UNL1        0.0875
     29 N          63.1603   88.9249   16.0893 N.ar    1  UNL1       -0.2453
     30 C          63.9094   89.5064   14.9271 C.ar    1  UNL1        0.0858
     31 C          64.6319   88.3886   14.2354 C.ar    1  UNL1        0.0530
     32 S          64.3295   87.1163   14.9701 S.2     1  UNL1       -0.0705
     33 C          62.7344   86.8687   18.5541 C.3     1  UNL1        0.0069
     34 C          62.8671   86.4733   17.1133 C.3     1  UNL1        0.0465
     35 C          62.4470   85.1033   16.6698 C.3     1  UNL1        0.0069
     36 C          59.2829   90.0699   11.9078 C.3     1  UNL1        0.0270
     37 C          58.4002   89.0733   12.5988 C.3     1  UNL1        0.0022
     38 C          58.7319   91.4042   11.5003 C.3     1  UNL1        0.0022
@<TRIPOS>BOND
     1    33    34    1
     2    34    35    1
     3    34    28    1
     4    28    29   ar
     5    29    30   ar
     6    30    27    1
     7    27    21    1
     8    21    22    1
     9    21    23   am
    10    23    24    2
    11    23    25   am
    12     1    25    1
    13     1     2    1
    14     2     3    2
    15     2     4   am
    16     4     5    1
    17     5     6    1
    18     6     7    1
    19     7    10    1
    20    10    11   am
    21    11    12    2
    22    11    14    1
    23    14    15    1
    24    15    16    1
    25    16    17   ar
    26    17    18   ar
    27    18    19   ar
    28    19    20   ar
    29     7     8    1
    30     8     9    1
    31     1    36    1
    32    36    37    1
    33    36    38    1
    34    30    31   ar
    35    31    32   ar
    36    32    28   ar
    37     9     4    1
    38    20    16   ar
    39    25    26    1
    40    10    13    1
