@<TRIPOS>MOLECULE
*****
 37 41 0 0 0
SMALL
GASTEIGER

@<TRIPOS>ATOM
      1 C          63.4656   91.0555   11.4574 C.3     1  UNL1        0.0798
      2 C          63.7773   91.9913   10.3273 C.3     1  UNL1        0.0178
      3 C          64.9618   92.9071   10.4169 C.3     1  UNL1        0.0029
      4 C          65.8348   92.8871   11.6366 C.3     1  UNL1        0.0178
      5 C          65.5232   91.9513   12.7666 C.3     1  UNL1        0.0795
      6 N          64.3386   91.0355   12.6771 N.3     1  UNL1       -0.1583
      7 C          62.2810   90.1397   11.3678 C.3     1  UNL1        0.0224
      8 C          60.9087   89.5828   11.6057 C.3     1  UNL1        0.0018
      9 C          61.3289   90.8554   12.2796 C.3     1  UNL1        0.0018
     10 C          62.8218   89.1059   10.4250 C.3     1  UNL1        0.0706
     11 C          62.3508   85.4880   11.7495 C.ar    1  UNL1        0.2527
     12 N          62.7580   86.9165   11.9574 N.ar    1  UNL1       -0.1937
     13 C          62.5447   87.6518   10.6673 C.ar    1  UNL1        0.1805
     14 N          62.0058   86.6775    9.6622 N.ar    1  UNL1       -0.0606
     15 O          61.8859   85.3402   10.3310 O.2     1  UNL1       -0.3359
     16 C          62.3999   84.3984   12.7793 C.3     1  UNL1        0.1615
     17 C          64.2834   83.0824   11.5666 C.3     1  UNL1        0.0900
     18 N          63.0830   83.1003   12.4657 N.3     1  UNL1       -0.2638
     19 C          62.5654   81.8200   13.0514 C.3     1  UNL1        0.0729
     20 C          62.3731   82.5024   14.3732 C.3     1  UNL1        0.0186
     21 C          62.7578   81.1376   11.7295 C.3     1  UNL1        0.0186
     22 C          62.0479   80.5397   13.6370 C.3     1  UNL1        0.1516
     23 O          60.6549   80.4767   14.1895 O.3     1  UNL1       -0.3806
     24 H          60.5902   81.0498   14.9695 H       1  UNL1        0.2105
     25 C          66.3961   91.9313   13.9863 C.3     1  UNL1        0.0164
     26 C          66.6086   92.2479   15.4370 C.3     1  UNL1        0.0014
     27 C          67.6955   91.5800   14.6481 C.3     1  UNL1        0.0014
     28 S          64.0269   90.0996   13.8072 S.O2    1  UNL1        0.0632
     29 O          63.4072   91.2308   14.5729 O.2     1  UNL1       -0.1528
     30 O          64.5002   88.9081   13.3845 O.2     1  UNL1       -0.1528
     31 C          63.7152   89.1639   14.9372 C.ar    1  UNL1        0.1222
     32 C          63.0692   89.6854   16.1865 C.ar    1  UNL1        0.0208
     33 C          62.7575   88.7496   17.3166 C.ar    1  UNL1        0.0128
     34 C          63.0918   87.2922   17.1974 C.ar    1  UNL1        0.0578
     35 CL         62.7802   86.3564   18.3275 Cl      1  UNL1       -0.0822
     36 C          63.7378   86.7706   15.9482 C.ar    1  UNL1        0.0128
     37 C          64.0495   87.7064   14.8181 C.ar    1  UNL1        0.0208
@<TRIPOS>BOND
     1    17    18    1
     2    18    16    1
     3    16    11    1
     4    11    12   ar
     5    12    13   ar
     6    13    10    1
     7    10     7    1
     8     1     7    1
     9     1     2    1
    10     2     3    1
    11     3     4    1
    12     4     5    1
    13     5    25    1
    14    25    26    1
    15    26    27    1
    16     5     6    1
    17     6    28    1
    18    28    29    2
    19    28    30    2
    20    28    31    1
    21    31    32   ar
    22    32    33   ar
    23    33    34   ar
    24    34    35    1
    25    34    36   ar
    26    36    37   ar
    27     7     8    1
    28     8     9    1
    29    13    14   ar
    30    14    15   ar
    31    18    19    1
    32    19    20    1
    33    19    21    1
    34    19    22    1
    35    22    23    1
    36    15    11   ar
    37     9     7    1
    38     6     1    1
    39    37    31   ar
    40    27    25    1
    41    23    24    1
@<TRIPOS>MOLECULE
*****
 37 41 0 0 0
SMALL
GASTEIGER

@<TRIPOS>ATOM
      1 C          60.5015   88.4794    9.5080 C.3     1  UNL1        0.0798
      2 C          59.7277   89.4560    8.6730 C.3     1  UNL1        0.0178
      3 C          59.3881   89.1226    7.2505 C.3     1  UNL1        0.0029
      4 C          59.8225   87.8126    6.6630 C.3     1  UNL1        0.0178
      5 C          60.5963   86.8360    7.4980 C.3     1  UNL1        0.0795
      6 N          60.9358   87.1693    8.9205 N.3     1  UNL1       -0.1583
      7 C          60.8411   88.8127   10.9306 C.3     1  UNL1        0.0224
      8 C          60.6667   89.0739   12.3973 C.3     1  UNL1        0.0018
      9 C          59.4789   88.7207   11.5520 C.3     1  UNL1        0.0018
     10 C          62.3211   89.0205   10.8031 C.3     1  UNL1        0.0706
     11 C          64.4203   90.4444   13.7411 C.ar    1  UNL1        0.2527
     12 N          63.6336   90.6377   12.4788 N.ar    1  UNL1       -0.1937
     13 C          63.1481   89.2930   12.0246 C.ar    1  UNL1        0.1805
     14 N          63.6348   88.2686   13.0063 N.ar    1  UNL1       -0.0606
     15 O          64.4211   88.9802   14.0672 O.2     1  UNL1       -0.3359
     16 C          65.0888   91.5253   14.5377 C.3     1  UNL1        0.1615
     17 C          65.7986   93.2297   12.7097 C.3     1  UNL1        0.0900
     18 N          66.1405   92.3849   13.9010 N.3     1  UNL1       -0.2638
     19 C          67.5341   92.3995   14.4557 C.3     1  UNL1        0.0729
     20 C          67.0083   92.9138   15.7630 C.3     1  UNL1        0.0186
     21 C          68.0598   91.8852   13.1484 C.3     1  UNL1        0.0186
     22 C          68.9276   92.4141   15.0105 C.3     1  UNL1        0.1516
     23 O          70.1015   92.2329   14.0945 O.3     1  UNL1       -0.3806
     24 H          70.0849   91.3378   13.7209 H       1  UNL1        0.2105
     25 C          61.0306   85.5259    6.9105 C.3     1  UNL1        0.0164
     26 C          62.1221   84.6147    6.4326 C.3     1  UNL1        0.0014
     27 C          60.6915   84.1681    6.3708 C.3     1  UNL1        0.0014
     28 S          61.7097   86.1927    9.7555 S.O2    1  UNL1        0.0632
     29 O          62.9499   86.5053    8.9718 O.2     1  UNL1       -0.1528
     30 O          60.7953   85.7070   10.6218 O.2     1  UNL1       -0.1528
     31 C          62.4836   85.2161   10.5905 C.ar    1  UNL1        0.1222
     32 C          62.3224   85.2114   12.0818 C.ar    1  UNL1        0.0208
     33 C          63.0963   84.2347   12.9168 C.ar    1  UNL1        0.0128
     34 C          64.0315   83.2628   12.2605 C.ar    1  UNL1        0.0578
     35 CL         64.8054   82.2862   13.0955 Cl      1  UNL1       -0.0822
     36 C          64.1928   83.2674   10.7692 C.ar    1  UNL1        0.0128
     37 C          63.4189   84.2441    9.9342 C.ar    1  UNL1        0.0208
@<TRIPOS>BOND
     1    17    18    1
     2    18    16    1
     3    16    11    1
     4    11    12   ar
     5    12    13   ar
     6    13    10    1
     7    10     7    1
     8     1     7    1
     9     1     2    1
    10     2     3    1
    11     3     4    1
    12     4     5    1
    13     5    25    1
    14    25    26    1
    15    26    27    1
    16     5     6    1
    17     6    28    1
    18    28    29    2
    19    28    30    2
    20    28    31    1
    21    31    32   ar
    22    32    33   ar
    23    33    34   ar
    24    34    35    1
    25    34    36   ar
    26    36    37   ar
    27     7     8    1
    28     8     9    1
    29    13    14   ar
    30    14    15   ar
    31    18    19    1
    32    19    20    1
    33    19    21    1
    34    19    22    1
    35    22    23    1
    36    15    11   ar
    37     9     7    1
    38     6     1    1
    39    37    31   ar
    40    27    25    1
    41    23    24    1
@<TRIPOS>MOLECULE
*****
 37 41 0 0 0
SMALL
GASTEIGER

@<TRIPOS>ATOM
      1 C          60.5405   88.5292    9.4979 C.3     1  UNL1        0.0798
      2 C          59.7515   89.5040    8.6750 C.3     1  UNL1        0.0178
      3 C          59.3608   89.1553    7.2695 C.3     1  UNL1        0.0029
      4 C          59.7590   87.8317    6.6868 C.3     1  UNL1        0.0178
      5 C          60.5480   86.8569    7.5097 C.3     1  UNL1        0.0795
      6 N          60.9388   87.2056    8.9152 N.3     1  UNL1       -0.1583
      7 C          60.9314   88.8780   10.9035 C.3     1  UNL1        0.0224
      8 C          60.8047   89.2005   12.3629 C.3     1  UNL1        0.0018
      9 C          59.5770   88.9237   11.5467 C.3     1  UNL1        0.0018
     10 C          62.4214   88.9533   10.7484 C.3     1  UNL1        0.0706
     11 C          64.6542   91.1777   13.0139 C.ar    1  UNL1        0.2527
     12 N          63.9332   90.9312   11.7219 N.ar    1  UNL1       -0.1937
     13 C          63.2551   89.5966   11.8167 C.ar    1  UNL1        0.1805
     14 N          63.5569   89.0182   13.1674 N.ar    1  UNL1       -0.0606
     15 O          64.4216   89.9954   13.9073 O.2     1  UNL1       -0.3359
     16 C          65.4653   92.3930   13.3531 C.3     1  UNL1        0.1615
     17 C          68.0432   92.0713   13.3821 C.3     1  UNL1        0.0900
     18 N          66.8076   92.6005   12.7165 N.3     1  UNL1       -0.2638
     19 C          66.9142   93.3373   11.4143 C.3     1  UNL1        0.0729
     20 C          67.6296   92.1655   10.8099 C.3     1  UNL1        0.0186
     21 C          66.1989   94.5090   12.0187 C.3     1  UNL1        0.0186
     22 C          67.0208   94.0741   10.1121 C.3     1  UNL1        0.1516
     23 O          68.3517   94.2093    9.4336 O.3     1  UNL1       -0.3806
     24 H          68.9382   94.7570    9.9785 H       1  UNL1        0.2105
     25 C          60.9462   85.5333    6.9270 C.3     1  UNL1        0.0164
     26 C          60.5708   84.1791    6.4024 C.3     1  UNL1        0.0014
     27 C          62.0114   84.5950    6.4424 C.3     1  UNL1        0.0014
     28 S          61.7278   86.2308    9.7382 S.O2    1  UNL1        0.0632
     29 O          62.9486   86.5270    8.9184 O.2     1  UNL1       -0.1528
     30 O          60.8336   85.7599   10.6332 O.2     1  UNL1       -0.1528
     31 C          62.5169   85.2560   10.5610 C.ar    1  UNL1        0.1222
     32 C          63.3682   84.2215    9.8864 C.ar    1  UNL1        0.0208
     33 C          64.1573   83.2467   10.7094 C.ar    1  UNL1        0.0128
     34 C          64.0950   83.3064   12.2069 C.ar    1  UNL1        0.0578
     35 CL         64.8841   82.3317   13.0297 Cl      1  UNL1       -0.0822
     36 C          63.2437   84.3409   12.8815 C.ar    1  UNL1        0.0128
     37 C          62.4546   85.3157   12.0586 C.ar    1  UNL1        0.0208
@<TRIPOS>BOND
     1    17    18    1
     2    18    16    1
     3    16    11    1
     4    11    12   ar
     5    12    13   ar
     6    13    10    1
     7    10     7    1
     8     1     7    1
     9     1     2    1
    10     2     3    1
    11     3     4    1
    12     4     5    1
    13     5    25    1
    14    25    26    1
    15    26    27    1
    16     5     6    1
    17     6    28    1
    18    28    29    2
    19    28    30    2
    20    28    31    1
    21    31    32   ar
    22    32    33   ar
    23    33    34   ar
    24    34    35    1
    25    34    36   ar
    26    36    37   ar
    27     7     8    1
    28     8     9    1
    29    13    14   ar
    30    14    15   ar
    31    18    19    1
    32    19    20    1
    33    19    21    1
    34    19    22    1
    35    22    23    1
    36    15    11   ar
    37     9     7    1
    38     6     1    1
    39    37    31   ar
    40    27    25    1
    41    23    24    1
@<TRIPOS>MOLECULE
*****
 37 41 0 0 0
SMALL
GASTEIGER

@<TRIPOS>ATOM
      1 C          63.4662   90.1244   13.1711 C.3     1  UNL1        0.0798
      2 C          62.3154   89.6447   12.3373 C.3     1  UNL1        0.0178
      3 C          62.1064   90.1975   10.9587 C.3     1  UNL1        0.0029
      4 C          63.0482   91.2300   10.4139 C.3     1  UNL1        0.0178
      5 C          64.1991   91.7098   11.2477 C.3     1  UNL1        0.0795
      6 N          64.4081   91.1569   12.6264 N.3     1  UNL1       -0.1583
      7 C          63.6753   89.5715   14.5498 C.3     1  UNL1        0.0224
      8 C          63.5160   89.3733   16.0281 C.3     1  UNL1        0.0018
      9 C          62.6872   90.4006   15.3156 C.3     1  UNL1        0.0018
     10 C          64.7360   88.5505   14.2629 C.3     1  UNL1        0.0706
     11 C          63.4293   84.9510   13.6291 C.ar    1  UNL1        0.2527
     12 N          63.4959   86.4040   13.2628 N.ar    1  UNL1       -0.1937
     13 C          64.3891   87.0912   14.2528 C.ar    1  UNL1        0.1805
     14 N          64.8745   86.0628   15.2309 N.ar    1  UNL1       -0.0606
     15 O          64.2813   84.7401   14.8455 O.2     1  UNL1       -0.3359
     16 C          62.6478   83.8944   12.9060 C.3     1  UNL1        0.1615
     17 C          64.5346   82.1996   12.3420 C.3     1  UNL1        0.0900
     18 N          63.1564   82.4840   12.8614 N.3     1  UNL1       -0.2638
     19 C          62.2868   81.3578   13.3364 C.3     1  UNL1        0.0729
     20 C          61.8819   82.1732   14.5285 C.3     1  UNL1        0.0186
     21 C          62.6917   80.5424   12.1442 C.3     1  UNL1        0.0186
     22 C          61.4172   80.2316   13.8113 C.3     1  UNL1        0.1516
     23 O          60.0329   80.5140   14.3151 O.3     1  UNL1       -0.3806
     24 H          60.0861   81.0338   15.1324 H       1  UNL1        0.2105
     25 C          65.1409   92.7423   10.7030 C.3     1  UNL1        0.0164
     26 C          66.4361   93.0948   10.0336 C.3     1  UNL1        0.0014
     27 C          65.4769   94.1782   10.4288 C.3     1  UNL1        0.0014
     28 S          65.5590   91.6366   13.4603 S.O2    1  UNL1        0.0632
     29 O          64.6041   92.3643   14.3595 O.2     1  UNL1       -0.1528
     30 O          66.6435   91.1057   12.8566 O.2     1  UNL1       -0.1528
     31 C          66.7098   92.1164   14.2942 C.ar    1  UNL1        0.1222
     32 C          68.1044   92.0732   13.7436 C.ar    1  UNL1        0.0208
     33 C          69.2552   92.5529   14.5776 C.ar    1  UNL1        0.0128
     34 C          69.0114   93.0758   15.9621 C.ar    1  UNL1        0.0578
     35 CL         70.1622   93.5555   16.7961 Cl      1  UNL1       -0.0822
     36 C          67.6168   93.1190   16.5128 C.ar    1  UNL1        0.0128
     37 C          66.4660   92.6393   15.6789 C.ar    1  UNL1        0.0208
@<TRIPOS>BOND
     1    17    18    1
     2    18    16    1
     3    16    11    1
     4    11    12   ar
     5    12    13   ar
     6    13    10    1
     7    10     7    1
     8     1     7    1
     9     1     2    1
    10     2     3    1
    11     3     4    1
    12     4     5    1
    13     5    25    1
    14    25    26    1
    15    26    27    1
    16     5     6    1
    17     6    28    1
    18    28    29    2
    19    28    30    2
    20    28    31    1
    21    31    32   ar
    22    32    33   ar
    23    33    34   ar
    24    34    35    1
    25    34    36   ar
    26    36    37   ar
    27     7     8    1
    28     8     9    1
    29    13    14   ar
    30    14    15   ar
    31    18    19    1
    32    19    20    1
    33    19    21    1
    34    19    22    1
    35    22    23    1
    36    15    11   ar
    37     9     7    1
    38     6     1    1
    39    37    31   ar
    40    27    25    1
    41    23    24    1
@<TRIPOS>MOLECULE
*****
 37 41 0 0 0
SMALL
GASTEIGER

@<TRIPOS>ATOM
      1 C          64.9725   91.2618   15.0791 C.3     1  UNL1        0.0798
      2 C          65.9114   91.9686   16.0112 C.3     1  UNL1        0.0178
      3 C          66.8238   93.0381   15.4881 C.3     1  UNL1        0.0029
      4 C          66.7973   93.4008   14.0328 C.3     1  UNL1        0.0178
      5 C          65.8584   92.6940   13.1007 C.3     1  UNL1        0.0795
      6 N          64.9460   91.6245   13.6238 N.3     1  UNL1       -0.1583
      7 C          64.0601   90.1923   15.6022 C.3     1  UNL1        0.0224
      8 C          62.9421   89.5398   16.3602 C.3     1  UNL1        0.0018
      9 C          63.1513   91.0218   16.4602 C.3     1  UNL1        0.0018
     10 C          64.6520   88.9914   14.9259 C.3     1  UNL1        0.0706
     11 C          63.6387   85.2482   15.0917 C.ar    1  UNL1        0.2527
     12 N          64.3311   86.3889   14.4067 N.ar    1  UNL1       -0.1937
     13 C          64.1287   87.6207   15.2384 C.ar    1  UNL1        0.1805
     14 N          63.3112   87.2413   16.4374 N.ar    1  UNL1       -0.0606
     15 O          63.0083   85.7750   16.3468 O.2     1  UNL1       -0.3359
     16 C          63.5858   83.8298   14.6068 C.3     1  UNL1        0.1615
     17 C          62.5620   84.6317   12.3576 C.3     1  UNL1        0.0900
     18 N          62.9943   83.5176   13.2641 N.3     1  UNL1       -0.2638
     19 C          62.8352   82.0912   12.8280 C.3     1  UNL1        0.0729
     20 C          62.0121   81.8094   14.0499 C.3     1  UNL1        0.0186
     21 C          63.6584   82.3730   11.6061 C.3     1  UNL1        0.0186
     22 C          62.6761   80.6649   12.3919 C.3     1  UNL1        0.1516
     23 O          62.2025   79.6302   13.3690 O.3     1  UNL1       -0.3806
     24 H          62.8683   79.5138   14.0648 H       1  UNL1        0.2105
     25 C          65.8319   93.0567   11.6455 C.3     1  UNL1        0.0164
     26 C          65.4188   93.9906   10.5468 C.3     1  UNL1        0.0014
     27 C          66.1990   92.7509   10.2236 C.3     1  UNL1        0.0014
     28 S          64.0071   90.9177   12.6917 S.O2    1  UNL1        0.0632
     29 O          62.9955   92.0085   12.8835 O.2     1  UNL1       -0.1528
     30 O          64.6860   89.8112   12.3213 O.2     1  UNL1       -0.1528
     31 C          63.0681   90.2109   11.7597 C.ar    1  UNL1        0.1222
     32 C          62.8325   88.7369   11.9077 C.ar    1  UNL1        0.0208
     33 C          61.8935   88.0301   10.9756 C.ar    1  UNL1        0.0128
     34 C          61.1902   88.7973    9.8954 C.ar    1  UNL1        0.0578
     35 CL         60.2513   88.0905    8.9634 Cl      1  UNL1       -0.0822
     36 C          61.4258   90.2713    9.7474 C.ar    1  UNL1        0.0128
     37 C          62.3648   90.9780   10.6794 C.ar    1  UNL1        0.0208
@<TRIPOS>BOND
     1    17    18    1
     2    18    16    1
     3    16    11    1
     4    11    12   ar
     5    12    13   ar
     6    13    10    1
     7    10     7    1
     8     1     7    1
     9     1     2    1
    10     2     3    1
    11     3     4    1
    12     4     5    1
    13     5    25    1
    14    25    26    1
    15    26    27    1
    16     5     6    1
    17     6    28    1
    18    28    29    2
    19    28    30    2
    20    28    31    1
    21    31    32   ar
    22    32    33   ar
    23    33    34   ar
    24    34    35    1
    25    34    36   ar
    26    36    37   ar
    27     7     8    1
    28     8     9    1
    29    13    14   ar
    30    14    15   ar
    31    18    19    1
    32    19    20    1
    33    19    21    1
    34    19    22    1
    35    22    23    1
    36    15    11   ar
    37     9     7    1
    38     6     1    1
    39    37    31   ar
    40    27    25    1
    41    23    24    1
@<TRIPOS>MOLECULE
*****
 37 41 0 0 0
SMALL
GASTEIGER

@<TRIPOS>ATOM
      1 C          62.6658   89.1245   12.5212 C.3     1  UNL1        0.0798
      2 C          63.1245   89.7563   13.8020 C.3     1  UNL1        0.0178
      3 C          63.7969   88.9215   14.8512 C.3     1  UNL1        0.0029
      4 C          64.0107   87.4550   14.6197 C.3     1  UNL1        0.0178
      5 C          63.5520   86.8232   13.3389 C.3     1  UNL1        0.0795
      6 N          62.8795   87.6580   12.2897 N.3     1  UNL1       -0.1583
      7 C          61.9933   89.9593   11.4719 C.3     1  UNL1        0.0224
      8 C          60.9100   90.6732   10.7191 C.3     1  UNL1        0.0018
      9 C          60.5765   89.9012   11.9613 C.3     1  UNL1        0.0018
     10 C          63.1766   90.3072   10.6182 C.3     1  UNL1        0.0706
     11 C          65.3972   93.0669   12.2052 C.ar    1  UNL1        0.2527
     12 N          64.6203   91.7882   12.3116 N.ar    1  UNL1       -0.1937
     13 C          64.0294   91.4914   10.9652 C.ar    1  UNL1        0.1805
     14 N          64.4412   92.5866   10.0266 N.ar    1  UNL1       -0.0606
     15 O          65.2865   93.5604   10.7930 O.2     1  UNL1       -0.3359
     16 C          66.1522   93.7348   13.3160 C.3     1  UNL1        0.1615
     17 C          65.6390   92.3949   15.4819 C.3     1  UNL1        0.0900
     18 N          66.6278   92.9304   14.4893 N.3     1  UNL1       -0.2638
     19 C          68.0925   92.6615   14.6700 C.3     1  UNL1        0.0729
     20 C          68.1189   93.5946   15.8441 C.3     1  UNL1        0.0186
     21 C          68.0660   91.7284   13.4959 C.3     1  UNL1        0.0186
     22 C          69.5571   92.3927   14.8507 C.3     1  UNL1        0.1516
     23 O          70.4046   92.0296   13.6676 O.3     1  UNL1       -0.3806
     24 H          70.1232   91.1688   13.3202 H       1  UNL1        0.2105
     25 C          63.7657   85.3567   13.1074 C.3     1  UNL1        0.0164
     26 C          64.4605   84.0741   13.4569 C.3     1  UNL1        0.0014
     27 C          63.4411   84.0992   12.3568 C.3     1  UNL1        0.0014
     28 S          62.4208   87.0262   11.0088 S.O2    1  UNL1        0.0632
     29 O          61.1537   86.5858   11.6799 O.2     1  UNL1       -0.1528
     30 O          63.4275   87.2733   10.1439 O.2     1  UNL1       -0.1528
     31 C          61.9621   86.3945    9.7280 C.ar    1  UNL1        0.1222
     32 C          60.5616   86.6197    9.2402 C.ar    1  UNL1        0.0208
     33 C          60.1029   85.9879    7.9594 C.ar    1  UNL1        0.0128
     34 C          61.0446   85.1310    7.1664 C.ar    1  UNL1        0.0578
     35 CL         60.5859   84.4993    5.8856 Cl      1  UNL1       -0.0822
     36 C          62.4451   84.9059    7.6542 C.ar    1  UNL1        0.0128
     37 C          62.9039   85.5376    8.9350 C.ar    1  UNL1        0.0208
@<TRIPOS>BOND
     1    17    18    1
     2    18    16    1
     3    16    11    1
     4    11    12   ar
     5    12    13   ar
     6    13    10    1
     7    10     7    1
     8     1     7    1
     9     1     2    1
    10     2     3    1
    11     3     4    1
    12     4     5    1
    13     5    25    1
    14    25    26    1
    15    26    27    1
    16     5     6    1
    17     6    28    1
    18    28    29    2
    19    28    30    2
    20    28    31    1
    21    31    32   ar
    22    32    33   ar
    23    33    34   ar
    24    34    35    1
    25    34    36   ar
    26    36    37   ar
    27     7     8    1
    28     8     9    1
    29    13    14   ar
    30    14    15   ar
    31    18    19    1
    32    19    20    1
    33    19    21    1
    34    19    22    1
    35    22    23    1
    36    15    11   ar
    37     9     7    1
    38     6     1    1
    39    37    31   ar
    40    27    25    1
    41    23    24    1
@<TRIPOS>MOLECULE
*****
 37 41 0 0 0
SMALL
GASTEIGER

@<TRIPOS>ATOM
      1 C          63.5560   90.1379   13.2245 C.3     1  UNL1        0.0798
      2 C          62.4084   89.6342   12.4004 C.3     1  UNL1        0.0178
      3 C          62.1958   90.1581   11.0111 C.3     1  UNL1        0.0029
      4 C          63.1310   91.1857   10.4458 C.3     1  UNL1        0.0178
      5 C          64.2786   91.6894   11.2698 C.3     1  UNL1        0.0795
      6 N          64.4911   91.1656   12.6592 N.3     1  UNL1       -0.1583
      7 C          63.7686   89.6141   14.6139 C.3     1  UNL1        0.0224
      8 C          63.7063   89.5196   16.1096 C.3     1  UNL1        0.0018
      9 C          63.0508   90.6689   15.4027 C.3     1  UNL1        0.0018
     10 C          64.5602   88.3773   14.3076 C.3     1  UNL1        0.0706
     11 C          63.7428   84.6624   15.0800 C.ar    1  UNL1        0.2527
     12 N          64.3628   85.7134   14.2078 N.ar    1  UNL1       -0.1937
     13 C          64.1137   87.0492   14.8432 C.ar    1  UNL1        0.1805
     14 N          63.3398   86.8238   16.1081 N.ar    1  UNL1       -0.0606
     15 O          63.1105   85.3486   16.2546 O.2     1  UNL1       -0.3359
     16 C          63.7531   83.1847   14.8230 C.3     1  UNL1        0.1615
     17 C          61.8879   81.7017   13.7877 C.3     1  UNL1        0.0900
     18 N          63.0553   82.6281   13.6175 N.3     1  UNL1       -0.2638
     19 C          63.5248   82.9980   12.2418 C.3     1  UNL1        0.0729
     20 C          64.7249   82.1146   12.4139 C.3     1  UNL1        0.0186
     21 C          62.3247   83.8813   12.0696 C.3     1  UNL1        0.0186
     22 C          63.9944   83.3678   10.8660 C.3     1  UNL1        0.1516
     23 O          64.7677   82.3781   10.0461 O.3     1  UNL1       -0.3806
     24 H          65.6236   82.2066   10.4690 H       1  UNL1        0.2105
     25 C          65.2137   92.7171   10.7045 C.3     1  UNL1        0.0164
     26 C          65.5572   94.1519   10.4343 C.3     1  UNL1        0.0014
     27 C          66.4898   93.0620    9.9957 C.3     1  UNL1        0.0014
     28 S          65.6388   91.6693   13.4833 S.O2    1  UNL1        0.0632
     29 O          64.7528   92.7278   14.0702 O.2     1  UNL1       -0.1528
     30 O          66.6625   90.8546   13.1503 O.2     1  UNL1       -0.1528
     31 C          66.7864   92.1731   14.3074 C.ar    1  UNL1        0.1222
     32 C          66.5381   92.7297   15.6780 C.ar    1  UNL1        0.0208
     33 C          67.6858   93.2335   16.5021 C.ar    1  UNL1        0.0128
     34 C          69.0817   93.1806   15.9556 C.ar    1  UNL1        0.0578
     35 CL         70.2293   93.6843   16.7798 Cl      1  UNL1       -0.0822
     36 C          69.3300   92.6239   14.5851 C.ar    1  UNL1        0.0128
     37 C          68.1824   92.1201   13.7610 C.ar    1  UNL1        0.0208
@<TRIPOS>BOND
     1    17    18    1
     2    18    16    1
     3    16    11    1
     4    11    12   ar
     5    12    13   ar
     6    13    10    1
     7    10     7    1
     8     1     7    1
     9     1     2    1
    10     2     3    1
    11     3     4    1
    12     4     5    1
    13     5    25    1
    14    25    26    1
    15    26    27    1
    16     5     6    1
    17     6    28    1
    18    28    29    2
    19    28    30    2
    20    28    31    1
    21    31    32   ar
    22    32    33   ar
    23    33    34   ar
    24    34    35    1
    25    34    36   ar
    26    36    37   ar
    27     7     8    1
    28     8     9    1
    29    13    14   ar
    30    14    15   ar
    31    18    19    1
    32    19    20    1
    33    19    21    1
    34    19    22    1
    35    22    23    1
    36    15    11   ar
    37     9     7    1
    38     6     1    1
    39    37    31   ar
    40    27    25    1
    41    23    24    1
@<TRIPOS>MOLECULE
*****
 37 41 0 0 0
SMALL
GASTEIGER

@<TRIPOS>ATOM
      1 C          63.5418   90.2798   12.9087 C.3     1  UNL1        0.0798
      2 C          62.4018   89.8697   12.0244 C.3     1  UNL1        0.0178
      3 C          62.2349   90.5018   10.6744 C.3     1  UNL1        0.0029
      4 C          63.2080   91.5439   10.2087 C.3     1  UNL1        0.0178
      5 C          64.3481   91.9540   11.0930 C.3     1  UNL1        0.0795
      6 N          64.5150   91.3219   12.4430 N.3     1  UNL1       -0.1583
      7 C          63.7088   89.6477   14.2588 C.3     1  UNL1        0.0224
      8 C          63.6227   89.4506   15.7433 C.3     1  UNL1        0.0018
      9 C          63.0380   90.6808   15.1148 C.3     1  UNL1        0.0018
     10 C          64.4375   88.3951   13.8715 C.3     1  UNL1        0.0706
     11 C          62.3453   85.7604   11.9359 C.ar    1  UNL1        0.2527
     12 N          62.9789   87.1166   12.0322 N.ar    1  UNL1       -0.1937
     13 C          63.6730   87.2108   13.3586 C.ar    1  UNL1        0.1805
     14 N          63.4684   85.9129   14.0821 N.ar    1  UNL1       -0.0606
     15 O          62.6478   85.0165   13.2028 O.2     1  UNL1       -0.3359
     16 C          61.5490   85.2396   10.7764 C.3     1  UNL1        0.1615
     17 C          62.9931   85.8538    8.7058 C.3     1  UNL1        0.0900
     18 N          61.6787   85.8835    9.4278 N.3     1  UNL1       -0.2638
     19 C          60.4940   86.5571    8.8013 C.3     1  UNL1        0.0729
     20 C          60.3001   87.3730   10.0450 C.3     1  UNL1        0.0186
     21 C          60.6878   85.7413    7.5575 C.3     1  UNL1        0.0186
     22 C          59.3092   87.2308    8.1747 C.3     1  UNL1        0.1516
     23 O          58.2071   86.4071    7.5774 O.3     1  UNL1       -0.3806
     24 H          58.5454   85.9243    6.8071 H       1  UNL1        0.2105
     25 C          65.3212   92.9962   10.6272 C.3     1  UNL1        0.0164
     26 C          66.6059   93.3610    9.9444 C.3     1  UNL1        0.0014
     27 C          65.7221   94.4363   10.5035 C.3     1  UNL1        0.0014
     28 S          65.6551   91.7320   13.3274 S.O2    1  UNL1        0.0632
     29 O          64.7503   92.6837   14.0524 O.2     1  UNL1       -0.1528
     30 O          66.6934   90.9903   12.8868 O.2     1  UNL1       -0.1528
     31 C          66.7951   92.1421   14.2117 C.ar    1  UNL1        0.1222
     32 C          66.5246   92.6509   15.5966 C.ar    1  UNL1        0.0208
     33 C          67.6647   93.0610   16.4810 C.ar    1  UNL1        0.0128
     34 C          69.0752   92.9623   15.9805 C.ar    1  UNL1        0.0578
     35 CL         70.2152   93.3724   16.8648 Cl      1  UNL1       -0.0822
     36 C          69.3458   92.4535   14.5956 C.ar    1  UNL1        0.0128
     37 C          68.2058   92.0434   13.7112 C.ar    1  UNL1        0.0208
@<TRIPOS>BOND
     1    17    18    1
     2    18    16    1
     3    16    11    1
     4    11    12   ar
     5    12    13   ar
     6    13    10    1
     7    10     7    1
     8     1     7    1
     9     1     2    1
    10     2     3    1
    11     3     4    1
    12     4     5    1
    13     5    25    1
    14    25    26    1
    15    26    27    1
    16     5     6    1
    17     6    28    1
    18    28    29    2
    19    28    30    2
    20    28    31    1
    21    31    32   ar
    22    32    33   ar
    23    33    34   ar
    24    34    35    1
    25    34    36   ar
    26    36    37   ar
    27     7     8    1
    28     8     9    1
    29    13    14   ar
    30    14    15   ar
    31    18    19    1
    32    19    20    1
    33    19    21    1
    34    19    22    1
    35    22    23    1
    36    15    11   ar
    37     9     7    1
    38     6     1    1
    39    37    31   ar
    40    27    25    1
    41    23    24    1
@<TRIPOS>MOLECULE
*****
 37 41 0 0 0
SMALL
GASTEIGER

@<TRIPOS>ATOM
      1 C          63.6719   87.8791   13.5228 C.3     1  UNL1        0.0798
      2 C          64.5568   87.5408   14.6857 C.3     1  UNL1        0.0178
      3 C          64.9284   86.1128   14.9548 C.3     1  UNL1        0.0029
      4 C          64.4150   85.0230   14.0611 C.3     1  UNL1        0.0178
      5 C          63.5301   85.3612   12.8982 C.3     1  UNL1        0.0795
      6 N          63.1585   86.7893   12.6291 N.3     1  UNL1       -0.1583
      7 C          63.3002   89.3073   13.2536 C.3     1  UNL1        0.0224
      8 C          63.0672   90.5860   12.5050 C.3     1  UNL1        0.0018
      9 C          63.5703   89.3733   11.7796 C.3     1  UNL1        0.0018
     10 C          62.9011   89.7371   14.6342 C.3     1  UNL1        0.0706
     11 C          65.5489   92.2092   16.0283 C.ar    1  UNL1        0.2527
     12 N          65.1277   91.1581   15.0447 N.ar    1  UNL1       -0.1937
     13 C          63.7175   90.7605   15.3664 C.ar    1  UNL1        0.1805
     14 N          63.2672   91.5659   16.5489 N.ar    1  UNL1       -0.0606
     15 O          64.3990   92.4613   16.9580 O.2     1  UNL1       -0.3359
     16 C          66.8852   92.8889   16.0743 C.3     1  UNL1        0.1615
     17 C          69.2678   92.7254   15.0512 C.3     1  UNL1        0.0900
     18 N          67.7842   92.8578   14.8739 N.3     1  UNL1       -0.2638
     19 C          67.1996   92.9592   13.4963 C.3     1  UNL1        0.0729
     20 C          66.5379   94.2518   13.8721 C.3     1  UNL1        0.0186
     21 C          67.8613   91.6666   13.1204 C.3     1  UNL1        0.0186
     22 C          66.6150   93.0605   12.1186 C.3     1  UNL1        0.1516
     23 O          67.2661   93.9369   11.0901 O.3     1  UNL1       -0.3806
     24 H          67.1961   94.8645   11.3647 H       1  UNL1        0.2105
     25 C          63.0167   84.2714   12.0044 C.3     1  UNL1        0.0164
     26 C          62.8911   83.6619   10.6397 C.3     1  UNL1        0.0014
     27 C          62.2531   82.9935   11.8212 C.3     1  UNL1        0.0014
     28 S          62.2735   87.1277   11.4661 S.O2    1  UNL1        0.0632
     29 O          61.0818   87.1409   12.3769 O.2     1  UNL1       -0.1528
     30 O          63.1214   87.1898   10.4175 O.2     1  UNL1       -0.1528
     31 C          61.3884   87.4660   10.3033 C.ar    1  UNL1        0.1222
     32 C          60.8296   86.3718    9.4428 C.ar    1  UNL1        0.0208
     33 C          59.9445   86.7102    8.2799 C.ar    1  UNL1        0.0128
     34 C          59.6184   88.1427    7.9776 C.ar    1  UNL1        0.0578
     35 CL         58.7334   88.4810    6.8147 Cl      1  UNL1       -0.0822
     36 C          60.1772   89.2369    8.8380 C.ar    1  UNL1        0.0128
     37 C          61.0623   88.8986   10.0009 C.ar    1  UNL1        0.0208
@<TRIPOS>BOND
     1    17    18    1
     2    18    16    1
     3    16    11    1
     4    11    12   ar
     5    12    13   ar
     6    13    10    1
     7    10     7    1
     8     1     7    1
     9     1     2    1
    10     2     3    1
    11     3     4    1
    12     4     5    1
    13     5    25    1
    14    25    26    1
    15    26    27    1
    16     5     6    1
    17     6    28    1
    18    28    29    2
    19    28    30    2
    20    28    31    1
    21    31    32   ar
    22    32    33   ar
    23    33    34   ar
    24    34    35    1
    25    34    36   ar
    26    36    37   ar
    27     7     8    1
    28     8     9    1
    29    13    14   ar
    30    14    15   ar
    31    18    19    1
    32    19    20    1
    33    19    21    1
    34    19    22    1
    35    22    23    1
    36    15    11   ar
    37     9     7    1
    38     6     1    1
    39    37    31   ar
    40    27    25    1
    41    23    24    1
