@<TRIPOS>MOLECULE
*****
 30 33 0 0 0
SMALL
GASTEIGER

@<TRIPOS>ATOM
      1 C          63.7617   88.7320   13.9406 C.3     1  UNL1        0.0282
      2 C          63.8562   89.7357   12.8297 C.3     1  UNL1        0.1189
      3 C          64.7083   90.9590   12.9946 C.ar    1  UNL1        0.1137
      4 N          65.5631   91.4413   14.1290 N.ar    1  UNL1       -0.1315
      5 N          66.1858   92.7430   13.7192 N.ar    1  UNL1       -0.0588
      6 N          65.7159   93.0651   12.3316 N.ar    1  UNL1       -0.1972
      7 C          64.8028   91.9626   11.8838 C.ar    1  UNL1        0.0823
      8 C          64.0450   91.7428   10.6080 C.3     1  UNL1        0.0688
      9 C          63.1929   90.5194   10.4431 C.3     1  UNL1        0.1004
     10 N          63.0985   89.5159   11.5539 N.am    1  UNL1       -0.2719
     11 C          62.2463   88.2924   11.3890 C.2     1  UNL1        0.2501
     12 O          62.1518   87.2889   12.4998 O.2     1  UNL1       -0.2699
     13 C          66.0930   94.2771   11.5322 C.ar    1  UNL1        0.1673
     14 C          66.5988   94.1221   10.1286 C.ar    1  UNL1        0.0685
     15 C          66.9759   95.3340    9.3291 C.ar    1  UNL1        0.1448
     16 F          67.4818   95.1790    7.9255 F       1  UNL1       -0.2040
     17 C          66.8471   96.7009    9.9333 C.ar    1  UNL1        0.0504
     18 C          66.3412   96.8558   11.3369 C.ar    1  UNL1        0.1029
     19 N          65.9642   95.6440   12.1364 N.ar    1  UNL1       -0.2248
     20 C          61.4886   88.0726   10.1132 C.ar    1  UNL1        0.0641
     21 C          60.5212   89.1108    9.6271 C.ar    1  UNL1        0.0054
     22 C          59.7634   88.8909    8.3513 C.ar    1  UNL1        0.0001
     23 C          59.9731   87.6330    7.5618 C.ar    1  UNL1        0.0047
     24 C          60.9406   86.5948    8.0479 C.ar    1  UNL1        0.0821
     25 C          61.6983   86.8146    9.3237 C.ar    1  UNL1        0.0659
     26 CL         62.6657   85.7764    9.8098 Cl      1  UNL1       -0.0822
     27 C          61.1503   85.3368    7.2583 C.3     1  UNL1        0.4194
     28 F          61.3600   84.0788    6.4686 F       1  UNL1       -0.1658
     29 F          62.6337   85.4741    7.4334 F       1  UNL1       -0.1658
     30 F          59.6669   85.1994    7.0832 F       1  UNL1       -0.1658
@<TRIPOS>BOND
     1     2     1    1
     2     2     3    1
     3     3     4   ar
     4     4     5   ar
     5     5     6   ar
     6     6    13    1
     7    13    14   ar
     8    14    15   ar
     9    15    16    1
    10    15    17   ar
    11    17    18   ar
    12    18    19   ar
    13     6     7   ar
    14     7     8    1
    15     8     9    1
    16     9    10    1
    17    10    11   am
    18    11    12    2
    19    11    20    1
    20    20    21   ar
    21    21    22   ar
    22    22    23   ar
    23    23    24   ar
    24    24    27    1
    25    27    28    1
    26    27    29    1
    27    27    30    1
    28    24    25   ar
    29    25    26    1
    30    10     2    1
    31    25    20   ar
    32     7     3   ar
    33    19    13   ar
@<TRIPOS>MOLECULE
*****
 30 33 0 0 0
SMALL
GASTEIGER

@<TRIPOS>ATOM
      1 C          63.3825   89.4613   16.9304 C.3     1  UNL1        0.0282
      2 C          63.4548   88.5403   15.7486 C.3     1  UNL1        0.1189
      3 C          63.3389   87.0577   15.9448 C.ar    1  UNL1        0.1137
      4 N          63.1495   86.2199   17.1744 N.ar    1  UNL1       -0.1315
      5 N          63.1047   84.7811   16.7525 N.ar    1  UNL1       -0.0588
      6 N          63.2665   84.7298   15.2622 N.ar    1  UNL1       -0.1972
      7 C          63.4112   86.1369   14.7629 C.ar    1  UNL1        0.0823
      8 C          63.5996   86.6986   13.3849 C.3     1  UNL1        0.0688
      9 C          63.7155   88.1811   13.1887 C.3     1  UNL1        0.1004
     10 N          63.6431   89.1020   14.3705 N.am    1  UNL1       -0.2719
     11 C          63.7591   90.5846   14.1742 C.2     1  UNL1        0.2501
     12 O          63.6867   91.5055   15.3561 O.2     1  UNL1       -0.2699
     13 C          63.2811   83.4892   14.4191 C.ar    1  UNL1        0.1673
     14 C          62.1838   82.4759   14.5570 C.ar    1  UNL1        0.0685
     15 C          62.1983   81.2352   13.7139 C.ar    1  UNL1        0.1448
     16 F          61.1009   80.2219   13.8518 F       1  UNL1       -0.2040
     17 C          63.3100   81.0081   12.7330 C.ar    1  UNL1        0.0504
     18 C          64.4074   82.0215   12.5951 C.ar    1  UNL1        0.1029
     19 N          64.3929   83.2620   13.4381 N.ar    1  UNL1       -0.2248
     20 C          63.9474   91.1463   12.7962 C.ar    1  UNL1        0.0641
     21 C          62.9741   90.8041   11.7073 C.ar    1  UNL1        0.0054
     22 C          63.1625   91.3659   10.3293 C.ar    1  UNL1        0.0001
     23 C          64.3240   92.2697   10.0401 C.ar    1  UNL1        0.0047
     24 C          65.2974   92.6120   11.1290 C.ar    1  UNL1        0.0821
     25 C          65.1090   92.0503   12.5070 C.ar    1  UNL1        0.0659
     26 CL         66.0823   92.3925   13.5959 Cl      1  UNL1       -0.0822
     27 C          66.4589   93.5159   10.8398 C.3     1  UNL1        0.4194
     28 F          67.6205   94.4198   10.5506 F       1  UNL1       -0.1658
     29 F          65.6554   94.6958   11.3002 F       1  UNL1       -0.1658
     30 F          67.2625   92.3359   10.3793 F       1  UNL1       -0.1658
@<TRIPOS>BOND
     1     2     1    1
     2     2     3    1
     3     3     4   ar
     4     4     5   ar
     5     5     6   ar
     6     6    13    1
     7    13    14   ar
     8    14    15   ar
     9    15    16    1
    10    15    17   ar
    11    17    18   ar
    12    18    19   ar
    13     6     7   ar
    14     7     8    1
    15     8     9    1
    16     9    10    1
    17    10    11   am
    18    11    12    2
    19    11    20    1
    20    20    21   ar
    21    21    22   ar
    22    22    23   ar
    23    23    24   ar
    24    24    27    1
    25    27    28    1
    26    27    29    1
    27    27    30    1
    28    24    25   ar
    29    25    26    1
    30    10     2    1
    31    25    20   ar
    32     7     3   ar
    33    19    13   ar
@<TRIPOS>MOLECULE
*****
 30 33 0 0 0
SMALL
GASTEIGER

@<TRIPOS>ATOM
      1 C          63.4069   89.5157   14.2776 C.3     1  UNL1        0.0282
      2 C          63.7198   90.2103   12.9854 C.3     1  UNL1        0.1189
      3 C          64.5149   91.4822   12.9908 C.ar    1  UNL1        0.1137
      4 N          65.1196   92.2830   14.1056 N.ar    1  UNL1       -0.1315
      5 N          65.8062   93.4724   13.5023 N.ar    1  UNL1       -0.0588
      6 N          65.6257   93.4067   12.0147 N.ar    1  UNL1       -0.1972
      7 C          64.8276   92.1766   11.6985 C.ar    1  UNL1        0.0823
      8 C          64.3453   91.5991   10.4009 C.3     1  UNL1        0.0688
      9 C          63.5502   90.3272   10.3955 C.3     1  UNL1        0.1004
     10 N          63.2374   89.6328   11.6877 N.am    1  UNL1       -0.2719
     11 C          62.4423   88.3608   11.6823 C.2     1  UNL1        0.2501
     12 O          62.1295   87.6664   12.9745 O.2     1  UNL1       -0.2699
     13 C          66.1511   94.3971   11.0182 C.ar    1  UNL1        0.1673
     14 C          66.7214   93.9198    9.7155 C.ar    1  UNL1        0.0685
     15 C          67.2468   94.9102    8.7189 C.ar    1  UNL1        0.1448
     16 F          67.8171   94.4328    7.4163 F       1  UNL1       -0.2040
     17 C          67.2019   96.3779    9.0251 C.ar    1  UNL1        0.0504
     18 C          66.6316   96.8552   10.3278 C.ar    1  UNL1        0.1029
     19 N          66.1062   95.8649   11.3243 N.ar    1  UNL1       -0.2248
     20 C          61.9599   87.7834   10.3846 C.ar    1  UNL1        0.0641
     21 C          62.5969   86.5423    9.8332 C.ar    1  UNL1        0.0054
     22 C          62.1145   85.9649    8.5355 C.ar    1  UNL1        0.0001
     23 C          60.9953   86.6284    7.7894 C.ar    1  UNL1        0.0047
     24 C          60.3582   87.8695    8.3408 C.ar    1  UNL1        0.0821
     25 C          60.8406   88.4470    9.6385 C.ar    1  UNL1        0.0659
     26 CL         60.2036   89.6880   10.1899 Cl      1  UNL1       -0.0822
     27 C          59.2389   88.5331    7.5946 C.3     1  UNL1        0.4194
     28 F          58.1196   89.1966    6.8484 F       1  UNL1       -0.1658
     29 F          60.1498   89.6709    7.2401 F       1  UNL1       -0.1658
     30 F          58.3280   87.3953    7.9492 F       1  UNL1       -0.1658
@<TRIPOS>BOND
     1     2     1    1
     2     2     3    1
     3     3     4   ar
     4     4     5   ar
     5     5     6   ar
     6     6    13    1
     7    13    14   ar
     8    14    15   ar
     9    15    16    1
    10    15    17   ar
    11    17    18   ar
    12    18    19   ar
    13     6     7   ar
    14     7     8    1
    15     8     9    1
    16     9    10    1
    17    10    11   am
    18    11    12    2
    19    11    20    1
    20    20    21   ar
    21    21    22   ar
    22    22    23   ar
    23    23    24   ar
    24    24    27    1
    25    27    28    1
    26    27    29    1
    27    27    30    1
    28    24    25   ar
    29    25    26    1
    30    10     2    1
    31    25    20   ar
    32     7     3   ar
    33    19    13   ar
@<TRIPOS>MOLECULE
*****
 30 33 0 0 0
SMALL
GASTEIGER

@<TRIPOS>ATOM
      1 C          62.4902   87.2498   17.7707 C.3     1  UNL1        0.0282
      2 C          63.1741   87.7031   16.5150 C.3     1  UNL1        0.1189
      3 C          63.4576   89.1602   16.2994 C.ar    1  UNL1        0.1137
      4 N          63.1822   90.3714   17.1403 N.ar    1  UNL1       -0.1315
      5 N          63.6958   91.5732   16.4042 N.ar    1  UNL1       -0.0588
      6 N          64.2886   91.1048   15.1084 N.ar    1  UNL1       -0.1972
      7 C          64.1414   89.6134   15.0436 C.ar    1  UNL1        0.0823
      8 C          64.5418   88.6096   14.0034 C.3     1  UNL1        0.0688
      9 C          64.2582   87.1525   14.2190 C.3     1  UNL1        0.1004
     10 N          63.5744   86.6993   15.4747 N.am    1  UNL1       -0.2719
     11 C          63.2909   85.2421   15.6902 C.2     1  UNL1        0.2501
     12 O          62.6071   84.7889   16.9460 O.2     1  UNL1       -0.2699
     13 C          64.9181   91.9750   14.0612 C.ar    1  UNL1        0.1673
     14 C          64.5767   91.7739   12.6146 C.ar    1  UNL1        0.0685
     15 C          65.2062   92.6441   11.5673 C.ar    1  UNL1        0.1448
     16 F          64.8646   92.4429   10.1206 F       1  UNL1       -0.2040
     17 C          66.1771   93.7152   11.9668 C.ar    1  UNL1        0.0504
     18 C          66.5186   93.9163   13.4136 C.ar    1  UNL1        0.1029
     19 N          65.8891   93.0462   14.4608 N.ar    1  UNL1       -0.2248
     20 C          63.6912   84.2382   14.6500 C.ar    1  UNL1        0.0641
     21 C          64.8979   84.4857   13.7942 C.ar    1  UNL1        0.0054
     22 C          65.2982   83.4818   12.7539 C.ar    1  UNL1        0.0001
     23 C          64.4918   82.2305   12.5696 C.ar    1  UNL1        0.0047
     24 C          63.2850   81.9831   13.4256 C.ar    1  UNL1        0.0821
     25 C          62.8847   82.9869   14.4658 C.ar    1  UNL1        0.0659
     26 CL         61.6780   82.7395   15.3217 Cl      1  UNL1       -0.0822
     27 C          62.4786   80.7318   13.2413 C.3     1  UNL1        0.4194
     28 F          61.6722   79.4805   13.0570 F       1  UNL1       -0.1658
     29 F          63.3918   80.0045   14.1832 F       1  UNL1       -0.1658
     30 F          61.5654   81.4591   12.2994 F       1  UNL1       -0.1658
@<TRIPOS>BOND
     1     2     1    1
     2     2     3    1
     3     3     4   ar
     4     4     5   ar
     5     5     6   ar
     6     6    13    1
     7    13    14   ar
     8    14    15   ar
     9    15    16    1
    10    15    17   ar
    11    17    18   ar
    12    18    19   ar
    13     6     7   ar
    14     7     8    1
    15     8     9    1
    16     9    10    1
    17    10    11   am
    18    11    12    2
    19    11    20    1
    20    20    21   ar
    21    21    22   ar
    22    22    23   ar
    23    23    24   ar
    24    24    27    1
    25    27    28    1
    26    27    29    1
    27    27    30    1
    28    24    25   ar
    29    25    26    1
    30    10     2    1
    31    25    20   ar
    32     7     3   ar
    33    19    13   ar
@<TRIPOS>MOLECULE
*****
 30 33 0 0 0
SMALL
GASTEIGER

@<TRIPOS>ATOM
      1 C          62.3494   87.1086   17.6553 C.3     1  UNL1        0.0282
      2 C          63.0704   87.5906   16.4314 C.3     1  UNL1        0.1189
      3 C          63.3930   89.0472   16.2757 C.ar    1  UNL1        0.1137
      4 N          63.1285   90.2333   17.1550 N.ar    1  UNL1       -0.1315
      5 N          63.6861   91.4482   16.4745 N.ar    1  UNL1       -0.0588
      6 N          64.2952   91.0129   15.1746 N.ar    1  UNL1       -0.1972
      7 C          64.1140   89.5290   15.0518 C.ar    1  UNL1        0.0823
      8 C          64.5125   88.5542   13.9836 C.3     1  UNL1        0.0688
      9 C          64.1899   87.0977   14.1393 C.3     1  UNL1        0.1004
     10 N          63.4689   86.6158   15.3631 N.am    1  UNL1       -0.2719
     11 C          63.1463   85.1591   15.5188 C.2     1  UNL1        0.2501
     12 O          62.4253   84.6773   16.7427 O.2     1  UNL1       -0.2699
     13 C          64.9674   91.9050   14.1735 C.ar    1  UNL1        0.1673
     14 C          64.6678   91.7513   12.7118 C.ar    1  UNL1        0.0685
     15 C          65.3401   92.6434   11.7105 C.ar    1  UNL1        0.1448
     16 F          65.0404   92.4896   10.2488 F       1  UNL1       -0.2040
     17 C          66.3117   93.6891   12.1710 C.ar    1  UNL1        0.0504
     18 C          66.6112   93.8428   13.6329 C.ar    1  UNL1        0.1029
     19 N          65.9391   92.9508   14.6340 N.ar    1  UNL1       -0.2248
     20 C          63.5447   84.1844   14.4506 C.ar    1  UNL1        0.0641
     21 C          64.1972   82.8866   14.8250 C.ar    1  UNL1        0.0054
     22 C          64.5956   81.9119   13.7567 C.ar    1  UNL1        0.0001
     23 C          64.3416   82.2349   12.3141 C.ar    1  UNL1        0.0047
     24 C          63.6892   83.5327   11.9397 C.ar    1  UNL1        0.0821
     25 C          63.2907   84.5074   13.0079 C.ar    1  UNL1        0.0659
     26 CL         62.6383   85.8052   12.6335 Cl      1  UNL1       -0.0822
     27 C          63.4352   83.8557   10.4971 C.3     1  UNL1        0.4194
     28 F          63.1812   84.1787    9.0544 F       1  UNL1       -0.1658
     29 F          64.8536   83.4962   10.1669 F       1  UNL1       -0.1658
     30 F          62.0168   84.2151   10.8273 F       1  UNL1       -0.1658
@<TRIPOS>BOND
     1     2     1    1
     2     2     3    1
     3     3     4   ar
     4     4     5   ar
     5     5     6   ar
     6     6    13    1
     7    13    14   ar
     8    14    15   ar
     9    15    16    1
    10    15    17   ar
    11    17    18   ar
    12    18    19   ar
    13     6     7   ar
    14     7     8    1
    15     8     9    1
    16     9    10    1
    17    10    11   am
    18    11    12    2
    19    11    20    1
    20    20    21   ar
    21    21    22   ar
    22    22    23   ar
    23    23    24   ar
    24    24    27    1
    25    27    28    1
    26    27    29    1
    27    27    30    1
    28    24    25   ar
    29    25    26    1
    30    10     2    1
    31    25    20   ar
    32     7     3   ar
    33    19    13   ar
