@<TRIPOS>MOLECULE
*****
 26 28 0 0 0
SMALL
GASTEIGER

@<TRIPOS>ATOM
      1 C          63.2372   84.3001   12.4680 C.3     1  UNL1        0.0503
      2 C          64.1518   82.0970   10.6486 C.3     1  UNL1        0.0307
      3 C          63.2508   81.7874   11.8072 C.ar    1  UNL1       -0.0255
      4 C          62.8071   80.3764   12.0561 C.ar    1  UNL1       -0.0046
      5 C          61.9061   80.0668   13.2148 C.ar    1  UNL1       -0.0003
      6 C          61.4488   81.1683   14.1244 C.ar    1  UNL1       -0.0003
      7 C          61.8925   82.5793   13.8755 C.ar    1  UNL1       -0.0043
      8 C          62.7935   82.8889   12.7169 C.ar    1  UNL1       -0.0220
      9 C          62.5175   85.1457   11.4595 C.ar    1  UNL1       -0.0180
     10 C          61.5236   86.1729   11.9146 C.ar    1  UNL1       -0.0034
     11 C          60.8039   87.0185   10.9061 C.ar    1  UNL1        0.0064
     12 C          61.0781   86.8369    9.4426 C.ar    1  UNL1        0.0345
     13 BR         60.3584   87.6826    8.4342 Br      1  UNL1       -0.0490
     14 C          62.0720   85.8097    8.9875 C.ar    1  UNL1        0.0064
     15 C          62.7917   84.9641    9.9960 C.ar    1  UNL1       -0.0034
     16 C          64.4005   84.8655   13.2275 C.3     1  UNL1        0.0578
     17 C          64.3056   85.0559   14.7123 C.2     1  UNL1        0.0975
     18 N          64.5602   83.9005   15.6344 N.2     1  UNL1       -0.0908
     19 O          64.7523   83.1349   15.5229 O.2     1  UNL1       -0.4090
     20 H          64.8679   82.5687   16.2605 H       1  UNL1        0.3278
     21 C          63.9560   86.4017   15.2751 C.ar    1  UNL1        0.0198
     22 C          63.2958   86.5046   16.6181 C.ar    1  UNL1        0.0220
     23 C          62.9463   87.8504   17.1807 C.ar    1  UNL1        0.0989
     24 N          63.2568   89.0933   16.4005 N.ar    1  UNL1       -0.2423
     25 C          63.9170   88.9904   15.0575 C.ar    1  UNL1        0.0989
     26 C          64.2665   87.6446   14.4948 C.ar    1  UNL1        0.0220
@<TRIPOS>BOND
     1     2     3    1
     2     3     4   ar
     3     4     5   ar
     4     5     6   ar
     5     6     7   ar
     6     7     8   ar
     7     8     1    1
     8     1    16    1
     9    16    17    1
    10    17    18    2
    11    18    19    1
    12    17    21    1
    13    21    22   ar
    14    22    23   ar
    15    23    24   ar
    16    24    25   ar
    17    25    26   ar
    18     1     9    1
    19     9    10   ar
    20    10    11   ar
    21    11    12   ar
    22    12    13    1
    23    12    14   ar
    24    14    15   ar
    25     8     3   ar
    26    26    21   ar
    27    15     9   ar
    28    19    20    1
@<TRIPOS>MOLECULE
*****
 26 28 0 0 0
SMALL
GASTEIGER

@<TRIPOS>ATOM
      1 C          63.2400   84.3010   12.4680 C.3     1  UNL1        0.0503
      2 C          64.1570   82.1038   10.6427 C.3     1  UNL1        0.0307
      3 C          63.2546   81.7905   11.7992 C.ar    1  UNL1       -0.0255
      4 C          62.8108   80.3786   12.0431 C.ar    1  UNL1       -0.0046
      5 C          61.9084   80.0652   13.1996 C.ar    1  UNL1       -0.0003
      6 C          61.4499   81.1638   14.1122 C.ar    1  UNL1       -0.0003
      7 C          61.8937   82.5756   13.8683 C.ar    1  UNL1       -0.0043
      8 C          62.7961   82.8890   12.7118 C.ar    1  UNL1       -0.0220
      9 C          62.5208   85.1500   11.4620 C.ar    1  UNL1       -0.0180
     10 C          62.7794   84.9583    9.9970 C.ar    1  UNL1       -0.0034
     11 C          62.0603   85.8074    8.9910 C.ar    1  UNL1        0.0064
     12 C          61.0826   86.8482    9.4501 C.ar    1  UNL1        0.0345
     13 BR         60.3635   87.6973    8.4442 Br      1  UNL1       -0.0490
     14 C          60.8239   87.0399   10.9152 C.ar    1  UNL1        0.0064
     15 C          61.5431   86.1909   11.9212 C.ar    1  UNL1       -0.0034
     16 C          64.4029   84.8638   13.2300 C.3     1  UNL1        0.0578
     17 C          64.3051   85.0546   14.7146 C.2     1  UNL1        0.0975
     18 N          64.5585   83.8996   15.6375 N.2     1  UNL1       -0.0908
     19 O          64.7511   83.1341   15.5266 O.2     1  UNL1       -0.4090
     20 H          64.8655   82.5681   16.2646 H       1  UNL1        0.3278
     21 C          63.9539   86.4005   15.2763 C.ar    1  UNL1        0.0198
     22 C          63.2930   86.5036   16.6189 C.ar    1  UNL1        0.0220
     23 C          62.9419   87.8494   17.1805 C.ar    1  UNL1        0.0989
     24 N          63.2516   89.0921   16.3995 N.ar    1  UNL1       -0.2423
     25 C          63.9125   88.9889   15.0569 C.ar    1  UNL1        0.0989
     26 C          64.2636   87.6431   14.4953 C.ar    1  UNL1        0.0220
@<TRIPOS>BOND
     1     2     3    1
     2     3     4   ar
     3     4     5   ar
     4     5     6   ar
     5     6     7   ar
     6     7     8   ar
     7     8     1    1
     8     1    16    1
     9    16    17    1
    10    17    18    2
    11    18    19    1
    12    17    21    1
    13    21    22   ar
    14    22    23   ar
    15    23    24   ar
    16    24    25   ar
    17    25    26   ar
    18     1     9    1
    19     9    10   ar
    20    10    11   ar
    21    11    12   ar
    22    12    13    1
    23    12    14   ar
    24    14    15   ar
    25     8     3   ar
    26    26    21   ar
    27    15     9   ar
    28    19    20    1
@<TRIPOS>MOLECULE
*****
 26 28 0 0 0
SMALL
GASTEIGER

@<TRIPOS>ATOM
      1 C          62.2222   87.3691   10.7561 C.3     1  UNL1        0.0503
      2 C          63.2673   85.6118    8.5607 C.3     1  UNL1        0.0307
      3 C          61.8434   86.0824    8.5311 C.ar    1  UNL1       -0.0255
      4 C          60.9419   85.6743    7.4038 C.ar    1  UNL1       -0.0046
      5 C          59.5179   86.1448    7.3741 C.ar    1  UNL1       -0.0003
      6 C          58.9954   87.0234    8.4718 C.ar    1  UNL1       -0.0003
      7 C          59.8968   87.4315    9.5991 C.ar    1  UNL1       -0.0043
      8 C          61.3208   86.9610    9.6287 C.ar    1  UNL1       -0.0220
      9 C          62.6455   86.3592   11.7812 C.ar    1  UNL1       -0.0180
     10 C          62.2094   84.9299   11.6506 C.ar    1  UNL1       -0.0034
     11 C          62.6326   83.9200   12.6757 C.ar    1  UNL1        0.0064
     12 C          63.4920   84.3392   13.8314 C.ar    1  UNL1        0.0345
     13 BR         63.9152   83.3293   14.8565 Br      1  UNL1       -0.0490
     14 C          63.9281   85.7685   13.9620 C.ar    1  UNL1        0.0064
     15 C          63.5049   86.7785   12.9369 C.ar    1  UNL1       -0.0034
     16 C          62.7004   88.7872   10.8583 C.3     1  UNL1        0.0578
     17 C          62.3246   89.6215   12.0469 C.2     1  UNL1        0.0975
     18 N          60.9067   89.6348   12.5358 N.2     1  UNL1       -0.0908
     19 O          60.2360   89.2743   12.2996 O.2     1  UNL1       -0.4090
     20 H          59.4347   89.4269   12.7607 H       1  UNL1        0.3278
     21 C          63.3670   90.4426   12.7465 C.ar    1  UNL1        0.0198
     22 C          63.5981   90.2657   14.2180 C.ar    1  UNL1        0.0220
     23 C          64.6403   91.0867   14.9175 C.ar    1  UNL1        0.0989
     24 N          65.4516   92.0848   14.1456 N.ar    1  UNL1       -0.2423
     25 C          65.2205   92.2617   12.6742 C.ar    1  UNL1        0.0989
     26 C          64.1782   91.4407   11.9746 C.ar    1  UNL1        0.0220
@<TRIPOS>BOND
     1     2     3    1
     2     3     4   ar
     3     4     5   ar
     4     5     6   ar
     5     6     7   ar
     6     7     8   ar
     7     8     1    1
     8     1    16    1
     9    16    17    1
    10    17    18    2
    11    18    19    1
    12    17    21    1
    13    21    22   ar
    14    22    23   ar
    15    23    24   ar
    16    24    25   ar
    17    25    26   ar
    18     1     9    1
    19     9    10   ar
    20    10    11   ar
    21    11    12   ar
    22    12    13    1
    23    12    14   ar
    24    14    15   ar
    25     8     3   ar
    26    26    21   ar
    27    15     9   ar
    28    19    20    1
@<TRIPOS>MOLECULE
*****
 26 28 0 0 0
SMALL
GASTEIGER

@<TRIPOS>ATOM
      1 C          64.4065   90.8220   14.3300 C.3     1  UNL1        0.0503
      2 C          64.7826   92.4239   16.8385 C.3     1  UNL1        0.0307
      3 C          65.9076   92.2957   15.8547 C.ar    1  UNL1       -0.0255
      4 C          67.2207   92.9685   16.1252 C.ar    1  UNL1       -0.0046
      5 C          68.3458   92.8403   15.1414 C.ar    1  UNL1       -0.0003
      6 C          68.1578   92.0393   13.8872 C.ar    1  UNL1       -0.0003
      7 C          66.8447   91.3666   13.6168 C.ar    1  UNL1       -0.0043
      8 C          65.7196   91.4948   14.6005 C.ar    1  UNL1       -0.0220
      9 C          64.0676   89.5339   15.0199 C.ar    1  UNL1       -0.0180
     10 C          63.2680   89.5506   16.2889 C.ar    1  UNL1       -0.0034
     11 C          62.9291   88.2625   16.9788 C.ar    1  UNL1        0.0064
     12 C          63.3898   86.9577   16.3998 C.ar    1  UNL1        0.0345
     13 BR         63.0509   85.6696   17.0897 Br      1  UNL1       -0.0490
     14 C          64.1895   86.9410   15.1307 C.ar    1  UNL1        0.0064
     15 C          64.5284   88.2291   14.4408 C.ar    1  UNL1       -0.0034
     16 C          63.4323   91.4373   13.3696 C.3     1  UNL1        0.0578
     17 C          63.2974   90.8853   11.9815 C.2     1  UNL1        0.0975
     18 N          64.1106   91.4640   10.8618 N.2     1  UNL1       -0.0908
     19 O          64.6499   92.0491   10.8141 O.2     1  UNL1       -0.4090
     20 H          65.0483   92.2531    9.9909 H       1  UNL1        0.3278
     21 C          62.3491   89.7544   11.7130 C.ar    1  UNL1        0.0198
     22 C          62.8796   88.3730   11.4676 C.ar    1  UNL1        0.0220
     23 C          61.9313   87.2422   11.1992 C.ar    1  UNL1        0.0989
     24 N          60.4526   87.4928   11.1760 N.ar    1  UNL1       -0.2423
     25 C          59.9221   88.8743   11.4213 C.ar    1  UNL1        0.0989
     26 C          60.8704   90.0050   11.6898 C.ar    1  UNL1        0.0220
@<TRIPOS>BOND
     1     2     3    1
     2     3     4   ar
     3     4     5   ar
     4     5     6   ar
     5     6     7   ar
     6     7     8   ar
     7     8     1    1
     8     1    16    1
     9    16    17    1
    10    17    18    2
    11    18    19    1
    12    17    21    1
    13    21    22   ar
    14    22    23   ar
    15    23    24   ar
    16    24    25   ar
    17    25    26   ar
    18     1     9    1
    19     9    10   ar
    20    10    11   ar
    21    11    12   ar
    22    12    13    1
    23    12    14   ar
    24    14    15   ar
    25     8     3   ar
    26    26    21   ar
    27    15     9   ar
    28    19    20    1
@<TRIPOS>MOLECULE
*****
 26 28 0 0 0
SMALL
GASTEIGER

@<TRIPOS>ATOM
      1 C          62.0757   86.6964   10.9073 C.3     1  UNL1        0.0503
      2 C          59.4812   87.1347    9.4662 C.3     1  UNL1        0.0307
      3 C          60.5908   86.3771    8.7994 C.ar    1  UNL1       -0.0255
      4 C          60.4033   85.8387    7.4120 C.ar    1  UNL1       -0.0046
      5 C          61.5129   85.0811    6.7451 C.ar    1  UNL1       -0.0003
      6 C          62.8101   84.8619    7.4656 C.ar    1  UNL1       -0.0003
      7 C          62.9977   85.4004    8.8530 C.ar    1  UNL1       -0.0043
      8 C          61.8880   86.1580    9.5198 C.ar    1  UNL1       -0.0220
      9 C          62.6036   88.0861   11.1074 C.ar    1  UNL1       -0.0180
     10 C          63.2237   88.4714   12.4177 C.ar    1  UNL1       -0.0034
     11 C          63.7517   89.8611   12.6178 C.ar    1  UNL1        0.0064
     12 C          63.6596   90.8655   11.5076 C.ar    1  UNL1        0.0345
     13 BR         64.1875   92.2551   11.7077 Br      1  UNL1       -0.0490
     14 C          63.0395   90.4802   10.1972 C.ar    1  UNL1        0.0064
     15 C          62.5115   89.0905    9.9971 C.ar    1  UNL1       -0.0034
     16 C          61.7353   85.8452   12.0945 C.3     1  UNL1        0.0578
     17 C          62.7769   84.9516   12.7000 C.2     1  UNL1        0.0975
     18 N          63.6968   85.4824   13.7592 N.2     1  UNL1       -0.0908
     19 O          63.7796   86.1901   14.1168 O.2     1  UNL1       -0.4090
     20 H          64.4387   86.3096   14.7720 H       1  UNL1        0.3278
     21 C          62.8985   83.5270   12.2462 C.ar    1  UNL1        0.0198
     22 C          62.3537   82.4193   13.0983 C.ar    1  UNL1        0.0220
     23 C          62.4754   80.9948   12.6444 C.ar    1  UNL1        0.0989
     24 N          63.1419   80.6781   11.3385 N.ar    1  UNL1       -0.2423
     25 C          63.6867   81.7858   10.4864 C.ar    1  UNL1        0.0989
     26 C          63.5650   83.2102   10.9402 C.ar    1  UNL1        0.0220
@<TRIPOS>BOND
     1     2     3    1
     2     3     4   ar
     3     4     5   ar
     4     5     6   ar
     5     6     7   ar
     6     7     8   ar
     7     8     1    1
     8     1    16    1
     9    16    17    1
    10    17    18    2
    11    18    19    1
    12    17    21    1
    13    21    22   ar
    14    22    23   ar
    15    23    24   ar
    16    24    25   ar
    17    25    26   ar
    18     1     9    1
    19     9    10   ar
    20    10    11   ar
    21    11    12   ar
    22    12    13    1
    23    12    14   ar
    24    14    15   ar
    25     8     3   ar
    26    26    21   ar
    27    15     9   ar
    28    19    20    1
@<TRIPOS>MOLECULE
*****
 26 28 0 0 0
SMALL
GASTEIGER

@<TRIPOS>ATOM
      1 C          62.3368   87.0711   10.3758 C.3     1  UNL1        0.0503
      2 C          59.5772   87.2505    9.2129 C.3     1  UNL1        0.0307
      3 C          60.6264   86.4240    8.5303 C.ar    1  UNL1       -0.0255
      4 C          60.2958   85.6873    7.2662 C.ar    1  UNL1       -0.0046
      5 C          61.3451   84.8608    6.5835 C.ar    1  UNL1       -0.0003
      6 C          62.7249   84.7711    7.1649 C.ar    1  UNL1       -0.0003
      7 C          63.0554   85.5078    8.4290 C.ar    1  UNL1       -0.0043
      8 C          62.0062   86.3343    9.1116 C.ar    1  UNL1       -0.0220
      9 C          62.6889   86.3081   11.6183 C.ar    1  UNL1       -0.0180
     10 C          62.2164   84.8949   11.7898 C.ar    1  UNL1       -0.0034
     11 C          62.5685   84.1319   13.0324 C.ar    1  UNL1        0.0064
     12 C          63.3931   84.7821   14.1034 C.ar    1  UNL1        0.0345
     13 BR         63.7452   84.0192   15.3459 Br      1  UNL1       -0.0490
     14 C          63.8657   86.1954   13.9319 C.ar    1  UNL1        0.0064
     15 C          63.5136   86.9584   12.6893 C.ar    1  UNL1       -0.0034
     16 C          62.3154   88.5707   10.3973 C.3     1  UNL1        0.0578
     17 C          61.9651   89.2977   11.6617 C.2     1  UNL1        0.0975
     18 N          60.6033   89.1334   12.2687 N.2     1  UNL1       -0.0908
     19 O          59.9546   88.7155   12.0686 O.2     1  UNL1       -0.4090
     20 H          59.1868   88.7571   12.6042 H       1  UNL1        0.3278
     21 C          62.9767   90.1891   12.3192 C.ar    1  UNL1        0.0198
     22 C          63.1820   90.1233   13.8036 C.ar    1  UNL1        0.0220
     23 C          64.1935   91.0147   14.4610 C.ar    1  UNL1        0.0989
     24 N          64.9998   91.9718   13.6340 N.ar    1  UNL1       -0.2423
     25 C          64.7944   92.0376   12.1496 C.ar    1  UNL1        0.0989
     26 C          63.7829   91.1462   11.4922 C.ar    1  UNL1        0.0220
@<TRIPOS>BOND
     1     2     3    1
     2     3     4   ar
     3     4     5   ar
     4     5     6   ar
     5     6     7   ar
     6     7     8   ar
     7     8     1    1
     8     1    16    1
     9    16    17    1
    10    17    18    2
    11    18    19    1
    12    17    21    1
    13    21    22   ar
    14    22    23   ar
    15    23    24   ar
    16    24    25   ar
    17    25    26   ar
    18     1     9    1
    19     9    10   ar
    20    10    11   ar
    21    11    12   ar
    22    12    13    1
    23    12    14   ar
    24    14    15   ar
    25     8     3   ar
    26    26    21   ar
    27    15     9   ar
    28    19    20    1
@<TRIPOS>MOLECULE
*****
 26 28 0 0 0
SMALL
GASTEIGER

@<TRIPOS>ATOM
      1 C          64.1254   90.0825   13.3367 C.3     1  UNL1        0.0503
      2 C          64.5746   92.0162   11.0875 C.3     1  UNL1        0.0307
      3 C          65.2449   92.2366   12.4111 C.ar    1  UNL1       -0.0255
      4 C          66.1398   93.4238   12.6102 C.ar    1  UNL1       -0.0046
      5 C          66.8102   93.6442   13.9338 C.ar    1  UNL1       -0.0003
      6 C          66.5856   92.6774   15.0585 C.ar    1  UNL1       -0.0003
      7 C          65.6907   91.4902   14.8594 C.ar    1  UNL1       -0.0043
      8 C          65.0203   91.2698   13.5357 C.ar    1  UNL1       -0.0220
      9 C          63.8186   89.1730   14.4894 C.ar    1  UNL1       -0.0180
     10 C          64.2931   87.7502   14.4690 C.ar    1  UNL1       -0.0034
     11 C          63.9863   86.8407   15.6217 C.ar    1  UNL1        0.0064
     12 C          63.2051   87.3540   16.7948 C.ar    1  UNL1        0.0345
     13 BR         62.8983   86.4444   17.9474 Br      1  UNL1       -0.0490
     14 C          62.7306   88.7769   16.8152 C.ar    1  UNL1        0.0064
     15 C          63.0374   89.6864   15.6625 C.ar    1  UNL1       -0.0034
     16 C          63.5373   89.8048   11.9851 C.3     1  UNL1        0.0578
     17 C          62.3080   88.9541   11.8625 C.2     1  UNL1        0.0975
     18 N          61.0155   89.4116   12.4707 N.2     1  UNL1       -0.0908
     19 O          60.7956   90.0571   12.8836 O.2     1  UNL1       -0.4090
     20 H          59.9105   90.1461   13.1778 H       1  UNL1        0.3278
     21 C          62.3713   87.6457   11.1315 C.ar    1  UNL1        0.0198
     22 C          62.5603   86.3685   11.8950 C.ar    1  UNL1        0.0220
     23 C          62.6235   85.0601   11.1641 C.ar    1  UNL1        0.0989
     24 N          62.4978   85.0291    9.6697 N.ar    1  UNL1       -0.2423
     25 C          62.3088   86.3063    8.9062 C.ar    1  UNL1        0.0989
     26 C          62.2455   87.6146    9.6371 C.ar    1  UNL1        0.0220
@<TRIPOS>BOND
     1     2     3    1
     2     3     4   ar
     3     4     5   ar
     4     5     6   ar
     5     6     7   ar
     6     7     8   ar
     7     8     1    1
     8     1    16    1
     9    16    17    1
    10    17    18    2
    11    18    19    1
    12    17    21    1
    13    21    22   ar
    14    22    23   ar
    15    23    24   ar
    16    24    25   ar
    17    25    26   ar
    18     1     9    1
    19     9    10   ar
    20    10    11   ar
    21    11    12   ar
    22    12    13    1
    23    12    14   ar
    24    14    15   ar
    25     8     3   ar
    26    26    21   ar
    27    15     9   ar
    28    19    20    1
@<TRIPOS>MOLECULE
*****
 26 28 0 0 0
SMALL
GASTEIGER

@<TRIPOS>ATOM
      1 C          64.4518   90.6361   13.2638 C.3     1  UNL1        0.0503
      2 C          66.1001   92.4323   15.0123 C.3     1  UNL1        0.0307
      3 C          65.9026   92.7704   13.5643 C.ar    1  UNL1       -0.0255
      4 C          66.5293   94.0065   12.9906 C.ar    1  UNL1       -0.0046
      5 C          66.3319   94.3446   11.5426 C.ar    1  UNL1       -0.0003
      6 C          65.5078   93.4465   10.6683 C.ar    1  UNL1       -0.0003
      7 C          64.8811   92.2104   11.2421 C.ar    1  UNL1       -0.0043
      8 C          65.0785   91.8723   12.6901 C.ar    1  UNL1       -0.0220
      9 C          63.3256   89.9607   12.5390 C.ar    1  UNL1       -0.0180
     10 C          63.4171   88.5013   12.2048 C.ar    1  UNL1       -0.0034
     11 C          62.2908   87.8258   11.4800 C.ar    1  UNL1        0.0064
     12 C          61.0731   88.6097   11.0894 C.ar    1  UNL1        0.0345
     13 BR         59.9469   87.9342   10.3645 Br      1  UNL1       -0.0490
     14 C          60.9816   90.0692   11.4236 C.ar    1  UNL1        0.0064
     15 C          62.1078   90.7447   12.1484 C.ar    1  UNL1       -0.0034
     16 C          64.9513   90.0755   14.5623 C.3     1  UNL1        0.0578
     17 C          63.9803   89.7221   15.6496 C.2     1  UNL1        0.0975
     18 N          63.2893   90.8078   16.4202 N.2     1  UNL1       -0.0908
     19 O          63.3104   91.6043   16.3948 O.2     1  UNL1       -0.4090
     20 H          62.7824   92.1059   16.9843 H       1  UNL1        0.3278
     21 C          63.7002   88.2828   15.9664 C.ar    1  UNL1        0.0198
     22 C          62.8601   87.9266   17.1569 C.ar    1  UNL1        0.0220
     23 C          62.5801   86.4874   17.4735 C.ar    1  UNL1        0.0989
     24 N          63.1402   85.4045   16.5997 N.ar    1  UNL1       -0.2423
     25 C          63.9803   85.7607   15.4092 C.ar    1  UNL1        0.0989
     26 C          64.2603   87.1999   15.0926 C.ar    1  UNL1        0.0220
@<TRIPOS>BOND
     1     2     3    1
     2     3     4   ar
     3     4     5   ar
     4     5     6   ar
     5     6     7   ar
     6     7     8   ar
     7     8     1    1
     8     1    16    1
     9    16    17    1
    10    17    18    2
    11    18    19    1
    12    17    21    1
    13    21    22   ar
    14    22    23   ar
    15    23    24   ar
    16    24    25   ar
    17    25    26   ar
    18     1     9    1
    19     9    10   ar
    20    10    11   ar
    21    11    12   ar
    22    12    13    1
    23    12    14   ar
    24    14    15   ar
    25     8     3   ar
    26    26    21   ar
    27    15     9   ar
    28    19    20    1
@<TRIPOS>MOLECULE
*****
 26 28 0 0 0
SMALL
GASTEIGER

@<TRIPOS>ATOM
      1 C          64.2166   90.3260   14.3150 C.3     1  UNL1        0.0503
      2 C          62.8701   89.9888   16.9746 C.3     1  UNL1        0.0307
      3 C          63.3783   88.7877   16.2336 C.ar    1  UNL1       -0.0255
      4 C          63.2133   87.4180   16.8224 C.ar    1  UNL1       -0.0046
      5 C          63.7216   86.2169   16.0815 C.ar    1  UNL1       -0.0003
      6 C          64.3949   86.3855   14.7517 C.ar    1  UNL1       -0.0003
      7 C          64.5599   87.7552   14.1629 C.ar    1  UNL1       -0.0043
      8 C          64.0516   88.9563   14.9039 C.ar    1  UNL1       -0.0220
      9 C          65.4118   91.1579   14.6747 C.ar    1  UNL1       -0.0180
     10 C          65.3789   92.0302   15.8945 C.ar    1  UNL1       -0.0034
     11 C          66.5741   92.8621   16.2541 C.ar    1  UNL1        0.0064
     12 C          67.8023   92.8218   15.3939 C.ar    1  UNL1        0.0345
     13 BR         68.9975   93.6537   15.7535 Br      1  UNL1       -0.0490
     14 C          67.8352   91.9495   14.1740 C.ar    1  UNL1        0.0064
     15 C          66.6400   91.1176   13.8144 C.ar    1  UNL1       -0.0034
     16 C          63.1864   90.8637   13.3666 C.3     1  UNL1        0.0578
     17 C          63.3586   90.6780   11.8881 C.2     1  UNL1        0.0975
     18 N          64.3148   91.5495   11.1291 N.2     1  UNL1       -0.0908
     19 O          64.8028   92.1456   11.3339 O.2     1  UNL1       -0.4090
     20 H          65.3290   92.5653   10.6821 H       1  UNL1        0.3278
     21 C          62.5745   89.6207   11.1687 C.ar    1  UNL1        0.0198
     22 C          62.7175   88.1811   11.5648 C.ar    1  UNL1        0.0220
     23 C          61.9335   87.1239   10.8454 C.ar    1  UNL1        0.0989
     24 N          61.0064   87.5064    9.7299 N.ar    1  UNL1       -0.2423
     25 C          60.8634   88.9460    9.3338 C.ar    1  UNL1        0.0989
     26 C          61.6475   90.0032   10.0532 C.ar    1  UNL1        0.0220
@<TRIPOS>BOND
     1     2     3    1
     2     3     4   ar
     3     4     5   ar
     4     5     6   ar
     5     6     7   ar
     6     7     8   ar
     7     8     1    1
     8     1    16    1
     9    16    17    1
    10    17    18    2
    11    18    19    1
    12    17    21    1
    13    21    22   ar
    14    22    23   ar
    15    23    24   ar
    16    24    25   ar
    17    25    26   ar
    18     1     9    1
    19     9    10   ar
    20    10    11   ar
    21    11    12   ar
    22    12    13    1
    23    12    14   ar
    24    14    15   ar
    25     8     3   ar
    26    26    21   ar
    27    15     9   ar
    28    19    20    1
