@<TRIPOS>MOLECULE
*****
 14 14 0 0 0
SMALL
GASTEIGER

@<TRIPOS>ATOM
      1 C          62.8694   83.2802   12.6168 C.2     1  UNL1       -0.0306
      2 C          62.3611   83.0201   14.0039 C.2     1  UNL1       -0.0479
      3 C          62.1499   84.1632   14.9520 C.3     1  UNL1        0.0260
      4 C          62.0640   81.6169   14.4429 C.3     1  UNL1        0.0217
      5 C          62.2752   80.4738   13.4949 C.3     1  UNL1        0.0047
      6 C          62.7835   80.7340   12.1079 C.3     1  UNL1        0.0044
      7 C          63.0806   82.1372   11.6688 C.3     1  UNL1        0.0183
      8 C          63.4381   81.3914   10.4174 C.3     1  UNL1        0.0043
      9 C          63.5019   83.2813   10.7951 C.3     1  UNL1        0.0043
     10 C          62.0558   85.5707   11.6994 C.2     1  UNL1        0.0371
     11 C          63.1666   84.6834   12.1778 C.2     1  UNL1       -0.0020
     12 C          61.9664   87.4267    9.8836 C.3     1  UNL1        0.0773
     13 C          62.3529   86.9739   11.2604 C.2     1  UNL1        0.1736
     14 O          63.0365   87.9243   12.1982 O.2     1  UNL1       -0.2913
@<TRIPOS>BOND
     1    12    13    1
     2    13    14    2
     3    13    10    1
     4    10    11    2
     5    11     1    1
     6     1     2    2
     7     2     3    1
     8     2     4    1
     9     4     5    1
    10     5     6    1
    11     6     7    1
    12     7     8    1
    13     7     9    1
    14     7     1    1
@<TRIPOS>MOLECULE
*****
 14 14 0 0 0
SMALL
GASTEIGER

@<TRIPOS>ATOM
      1 C          63.0701   83.7226   12.2489 C.2     1  UNL1       -0.0306
      2 C          63.3548   82.8977   11.0289 C.2     1  UNL1       -0.0479
      3 C          63.7647   83.5664    9.7503 C.3     1  UNL1        0.0260
      4 C          63.2295   81.4041   11.0874 C.3     1  UNL1        0.0217
      5 C          62.8195   80.7354   12.3659 C.3     1  UNL1        0.0047
      6 C          62.5349   81.5602   13.5860 C.3     1  UNL1        0.0044
      7 C          62.6601   83.0538   13.5275 C.3     1  UNL1        0.0183
      8 C          62.2434   82.8832   14.9583 C.3     1  UNL1        0.0043
      9 C          62.6407   84.4882   13.9659 C.3     1  UNL1        0.0043
     10 C          62.2902   86.0103   11.2960 C.2     1  UNL1        0.0371
     11 C          63.1954   85.2162   12.1904 C.2     1  UNL1       -0.0020
     12 C          61.9808   88.2454   10.0082 C.3     1  UNL1        0.0773
     13 C          62.4155   87.5039   11.2375 C.2     1  UNL1        0.1736
     14 O          62.9754   88.2560   12.4083 O.2     1  UNL1       -0.2913
@<TRIPOS>BOND
     1    12    13    1
     2    13    14    2
     3    13    10    1
     4    10    11    2
     5    11     1    1
     6     1     2    2
     7     2     3    1
     8     2     4    1
     9     4     5    1
    10     5     6    1
    11     6     7    1
    12     7     8    1
    13     7     9    1
    14     7     1    1
@<TRIPOS>MOLECULE
*****
 14 14 0 0 0
SMALL
GASTEIGER

@<TRIPOS>ATOM
      1 C          65.0851   91.9711   12.3472 C.2     1  UNL1       -0.0306
      2 C          63.9651   91.2285   11.6808 C.2     1  UNL1       -0.0479
      3 C          63.5351   91.6063   10.2942 C.3     1  UNL1        0.0260
      4 C          63.2750   90.1081   12.4008 C.3     1  UNL1        0.0217
      5 C          63.7049   89.7303   13.7873 C.3     1  UNL1        0.0047
      6 C          64.8249   90.4729   14.4537 C.3     1  UNL1        0.0044
      7 C          65.5150   91.5933   13.7336 C.3     1  UNL1        0.0183
      8 C          66.2764   91.6061   15.0259 C.3     1  UNL1        0.0043
      9 C          66.4695   92.7181   13.4624 C.3     1  UNL1        0.0043
     10 C          66.6717   92.7945   10.4618 C.2     1  UNL1        0.0371
     11 C          65.7751   93.0915   11.6271 C.2     1  UNL1       -0.0020
     12 C          66.5692   95.0872    9.2440 C.3     1  UNL1        0.0773
     13 C          67.3617   93.9149    9.7417 C.2     1  UNL1        0.1736
     14 O          68.8442   93.8629    9.5193 O.2     1  UNL1       -0.2913
@<TRIPOS>BOND
     1    12    13    1
     2    13    14    2
     3    13    10    1
     4    10    11    2
     5    11     1    1
     6     1     2    2
     7     2     3    1
     8     2     4    1
     9     4     5    1
    10     5     6    1
    11     6     7    1
    12     7     8    1
    13     7     9    1
    14     7     1    1
@<TRIPOS>MOLECULE
*****
 14 14 0 0 0
SMALL
GASTEIGER

@<TRIPOS>ATOM
      1 C          62.5867   85.2335   10.3550 C.2     1  UNL1       -0.0306
      2 C          63.2921   84.4611    9.2800 C.2     1  UNL1       -0.0479
      3 C          63.0910   84.8264    7.8390 C.3     1  UNL1        0.0260
      4 C          64.1987   83.3235    9.6458 C.3     1  UNL1        0.0217
      5 C          64.3999   82.9582   11.0866 C.3     1  UNL1        0.0047
      6 C          63.6944   83.7305   12.1616 C.3     1  UNL1        0.0044
      7 C          62.7878   84.8682   11.7958 C.3     1  UNL1        0.0183
      8 C          62.6585   84.9020   13.2899 C.3     1  UNL1        0.0043
      9 C          61.8363   86.0176   11.9490 C.3     1  UNL1        0.0043
     10 C          60.6260   86.1823    8.9389 C.2     1  UNL1        0.0371
     11 C          61.6800   86.3711    9.9892 C.2     1  UNL1       -0.0020
     12 C          60.1224   88.7306    8.8858 C.3     1  UNL1        0.0773
     13 C          59.7193   87.3199    8.5731 C.2     1  UNL1        0.1736
     14 O          58.4097   87.0470    7.8947 O.2     1  UNL1       -0.2913
@<TRIPOS>BOND
     1    12    13    1
     2    13    14    2
     3    13    10    1
     4    10    11    2
     5    11     1    1
     6     1     2    2
     7     2     3    1
     8     2     4    1
     9     4     5    1
    10     5     6    1
    11     6     7    1
    12     7     8    1
    13     7     9    1
    14     7     1    1
@<TRIPOS>MOLECULE
*****
 14 14 0 0 0
SMALL
GASTEIGER

@<TRIPOS>ATOM
      1 C          62.7515   84.7980   11.0767 C.2     1  UNL1       -0.0306
      2 C          63.5449   83.9194   10.1556 C.2     1  UNL1       -0.0479
      3 C          64.2996   82.7449   10.7044 C.3     1  UNL1        0.0260
      4 C          63.5838   84.2153    8.6855 C.3     1  UNL1        0.0217
      5 C          62.8293   85.3897    8.1367 C.3     1  UNL1        0.0047
      6 C          62.0358   86.2683    9.0578 C.3     1  UNL1        0.0044
      7 C          61.9970   85.9724   10.5279 C.3     1  UNL1        0.0183
      8 C          61.1236   87.1911   10.4843 C.3     1  UNL1        0.0043
      9 C          61.6547   86.0998   11.9827 C.3     1  UNL1        0.0043
     10 C          63.9625   84.6166   13.3681 C.2     1  UNL1        0.0371
     11 C          62.7127   84.5021   12.5467 C.2     1  UNL1       -0.0020
     12 C          63.9119   85.4462   15.8297 C.3     1  UNL1        0.0773
     13 C          63.9237   84.3207   14.8381 C.2     1  UNL1        0.1736
     14 O          63.8966   82.8993   15.3166 O.2     1  UNL1       -0.2913
@<TRIPOS>BOND
     1    12    13    1
     2    13    14    2
     3    13    10    1
     4    10    11    2
     5    11     1    1
     6     1     2    2
     7     2     3    1
     8     2     4    1
     9     4     5    1
    10     5     6    1
    11     6     7    1
    12     7     8    1
    13     7     9    1
    14     7     1    1
@<TRIPOS>MOLECULE
*****
 14 14 0 0 0
SMALL
GASTEIGER

@<TRIPOS>ATOM
      1 C          64.8692   91.7754   12.2680 C.2     1  UNL1       -0.0306
      2 C          65.4019   91.5383   13.6500 C.2     1  UNL1       -0.0479
      3 C          66.4879   92.4171   14.1963 C.3     1  UNL1        0.0260
      4 C          64.8486   90.4223   14.4858 C.3     1  UNL1        0.0217
      5 C          63.7627   89.5435   13.9395 C.3     1  UNL1        0.0047
      6 C          63.2301   89.7806   12.5575 C.3     1  UNL1        0.0044
      7 C          63.7833   90.8966   11.7217 C.3     1  UNL1        0.0183
      8 C          62.7670   90.3379   10.7705 C.3     1  UNL1        0.0043
      9 C          63.9836   91.8185   10.5556 C.3     1  UNL1        0.0043
     10 C          66.7987   92.7784   10.8464 C.2     1  UNL1        0.0371
     11 C          65.4225   92.8914   11.4322 C.2     1  UNL1       -0.0020
     12 C          66.4746   95.0482    9.6244 C.3     1  UNL1        0.0773
     13 C          67.3520   93.8944   10.0106 C.2     1  UNL1        0.1736
     14 O          68.7825   93.8566    9.5610 O.2     1  UNL1       -0.2913
@<TRIPOS>BOND
     1    12    13    1
     2    13    14    2
     3    13    10    1
     4    10    11    2
     5    11     1    1
     6     1     2    2
     7     2     3    1
     8     2     4    1
     9     4     5    1
    10     5     6    1
    11     6     7    1
    12     7     8    1
    13     7     9    1
    14     7     1    1
@<TRIPOS>MOLECULE
*****
 14 14 0 0 0
SMALL
GASTEIGER

@<TRIPOS>ATOM
      1 C          62.6516   84.9055   11.1923 C.2     1  UNL1       -0.0306
      2 C          62.0049   86.0765   10.5138 C.2     1  UNL1       -0.0479
      3 C          61.1968   87.0546   11.3141 C.3     1  UNL1        0.0260
      4 C          62.1663   86.2696    9.0350 C.3     1  UNL1        0.0217
      5 C          62.9743   85.2916    8.2348 C.3     1  UNL1        0.0047
      6 C          63.6210   84.1205    8.9132 C.3     1  UNL1        0.0044
      7 C          63.4597   83.9275   10.3920 C.3     1  UNL1        0.0183
      8 C          64.3149   82.7391   10.0659 C.3     1  UNL1        0.0043
      9 C          63.5954   83.3217   11.7574 C.3     1  UNL1        0.0043
     10 C          63.4687   85.3382   13.6202 C.2     1  UNL1        0.0371
     11 C          62.4903   84.7125   12.6710 C.2     1  UNL1       -0.0020
     12 C          62.9154   83.8028   15.6417 C.3     1  UNL1        0.0773
     13 C          63.3074   85.1451   15.0990 C.2     1  UNL1        0.1736
     14 O          63.5380   86.2944   16.0349 O.2     1  UNL1       -0.2913
@<TRIPOS>BOND
     1    12    13    1
     2    13    14    2
     3    13    10    1
     4    10    11    2
     5    11     1    1
     6     1     2    2
     7     2     3    1
     8     2     4    1
     9     4     5    1
    10     5     6    1
    11     6     7    1
    12     7     8    1
    13     7     9    1
    14     7     1    1
@<TRIPOS>MOLECULE
*****
 14 14 0 0 0
SMALL
GASTEIGER

@<TRIPOS>ATOM
      1 C          61.6652   87.2944   10.0023 C.2     1  UNL1       -0.0306
      2 C          62.0031   88.4103   10.9459 C.2     1  UNL1       -0.0479
      3 C          63.0471   88.2077   12.0039 C.3     1  UNL1        0.0260
      4 C          61.2971   89.7288   10.8317 C.3     1  UNL1        0.0217
      5 C          60.2532   89.9314    9.7739 C.3     1  UNL1        0.0047
      6 C          59.9153   88.8155    8.8302 C.3     1  UNL1        0.0044
      7 C          60.6213   87.4970    8.9444 C.3     1  UNL1        0.0183
      8 C          59.7130   87.2067    7.7866 C.3     1  UNL1        0.0043
      9 C          61.0118   86.0777    8.6564 C.3     1  UNL1        0.0043
     10 C          62.2115   85.1443   11.3546 C.2     1  UNL1        0.0371
     11 C          62.3712   85.9759   10.1165 C.2     1  UNL1       -0.0020
     12 C          63.8667   83.3877   10.3931 C.3     1  UNL1        0.0773
     13 C          62.9175   83.8258   11.4688 C.2     1  UNL1        0.1736
     14 O          62.6744   82.9454   12.6586 O.2     1  UNL1       -0.2913
@<TRIPOS>BOND
     1    12    13    1
     2    13    14    2
     3    13    10    1
     4    10    11    2
     5    11     1    1
     6     1     2    2
     7     2     3    1
     8     2     4    1
     9     4     5    1
    10     5     6    1
    11     6     7    1
    12     7     8    1
    13     7     9    1
    14     7     1    1
@<TRIPOS>MOLECULE
*****
 14 14 0 0 0
SMALL
GASTEIGER

@<TRIPOS>ATOM
      1 C          62.5570   83.3073   13.1514 C.2     1  UNL1       -0.0306
      2 C          63.0389   84.1267   11.9912 C.2     1  UNL1       -0.0479
      3 C          63.0039   85.6246   12.0649 C.3     1  UNL1        0.0260
      4 C          63.5559   83.4484   10.7573 C.3     1  UNL1        0.0217
      5 C          63.5910   81.9507   10.6835 C.3     1  UNL1        0.0047
      6 C          63.1091   81.1312   11.8438 C.3     1  UNL1        0.0044
      7 C          62.5921   81.8095   13.0777 C.3     1  UNL1        0.0183
      8 C          62.4278   80.3742   13.4812 C.3     1  UNL1        0.0043
      9 C          62.0180   81.9892   14.4518 C.3     1  UNL1        0.0043
     10 C          62.9447   84.8722   15.1887 C.2     1  UNL1        0.0371
     11 C          62.0400   83.9855   14.3854 C.2     1  UNL1       -0.0020
     12 C          63.3846   86.0115   17.4819 C.3     1  UNL1        0.0773
     13 C          62.4277   85.5505   16.4227 C.2     1  UNL1        0.1736
     14 O          60.9538   85.7677   16.5975 O.2     1  UNL1       -0.2913
@<TRIPOS>BOND
     1    12    13    1
     2    13    14    2
     3    13    10    1
     4    10    11    2
     5    11     1    1
     6     1     2    2
     7     2     3    1
     8     2     4    1
     9     4     5    1
    10     5     6    1
    11     6     7    1
    12     7     8    1
    13     7     9    1
    14     7     1    1
