@<TRIPOS>MOLECULE
*****
 24 27 0 0 0
SMALL
GASTEIGER

@<TRIPOS>ATOM
      1 N          63.1810   89.2092   12.4361 N.ar    1  UNL1       -0.2064
      2 C          62.4002   89.6785   11.2445 C.ar    1  UNL1        0.1000
      3 C          61.8823   88.4690   10.5241 C.ar    1  UNL1        0.0220
      4 C          62.3431   87.2523   11.2705 C.ar    1  UNL1        0.0187
      5 C          62.1354   85.7868   11.0267 C.ar    1  UNL1       -0.0030
      6 C          62.7305   84.7788   11.9648 C.ar    1  UNL1       -0.0246
      7 C          63.5331   85.2362   13.1464 C.ar    1  UNL1       -0.0232
      8 C          63.7407   86.7016   13.3902 C.ar    1  UNL1        0.0144
      9 C          63.1457   87.7097   12.4522 C.ar    1  UNL1        0.0823
     10 C          64.2084   84.4049   14.1967 C.3     1  UNL1        0.0431
     11 C          64.2478   82.9108   14.3245 C.3     1  UNL1        0.0733
     12 N          63.6217   81.8792   13.4337 N.3     1  UNL1       -0.2969
     13 C          62.8015   82.0867   12.1950 C.3     1  UNL1        0.0733
     14 C          62.4049   83.3771   11.5413 C.3     1  UNL1        0.0431
     15 H          63.0170   81.3398   14.0532 H       1  UNL1        0.1233
     16 O          64.5287   90.8431   12.3188 O.2     1  UNL1       -0.1461
     17 S          63.8753   90.0854   13.4362 S.O2    1  UNL1        0.1026
     18 O          63.2218   89.3276   14.5537 O.2     1  UNL1       -0.1461
     19 C          64.5695   90.9616   14.4364 C.ar    1  UNL1        0.2085
     20 C          65.9774   91.4152   14.1867 C.ar    1  UNL1        0.0400
     21 C          66.6716   92.2913   15.1868 C.ar    1  UNL1        0.0046
     22 C          65.9581   92.7141   16.4367 C.ar    1  UNL1        0.0208
     23 C          64.5502   92.2605   16.6864 C.ar    1  UNL1        0.1004
     24 N          63.8560   91.3843   15.6862 N.ar    1  UNL1       -0.2241
@<TRIPOS>BOND
     1    16    17    2
     2    17    18    2
     3    17    19    1
     4    19    20   ar
     5    20    21   ar
     6    21    22   ar
     7    22    23   ar
     8    23    24   ar
     9    17     1    1
    10     1     2   ar
    11     2     3   ar
    12     3     4   ar
    13     4     5   ar
    14     5     6   ar
    15     6     7   ar
    16     7     8   ar
    17     8     9   ar
    18     7    10    1
    19    10    11    1
    20    11    12    1
    21    12    13    1
    22    13    14    1
    23    24    19   ar
    24     9     1   ar
    25     9     4   ar
    26    14     6    1
    27    12    15    1
@<TRIPOS>MOLECULE
*****
 24 27 0 0 0
SMALL
GASTEIGER

@<TRIPOS>ATOM
      1 N          63.8361   85.0399   13.9293 N.ar    1  UNL1       -0.2064
      2 C          64.6683   85.4809   15.0968 C.ar    1  UNL1        0.1000
      3 C          64.7762   86.9764   15.0504 C.ar    1  UNL1        0.0220
      4 C          64.0108   87.4595   13.8544 C.ar    1  UNL1        0.0187
      5 C          63.7678   88.8347   13.3067 C.ar    1  UNL1       -0.0030
      6 C          62.9437   89.0130   12.0661 C.ar    1  UNL1       -0.0246
      7 C          62.3627   87.8163   11.3732 C.ar    1  UNL1       -0.0232
      8 C          62.6057   86.4412   11.9208 C.ar    1  UNL1        0.0144
      9 C          63.4297   86.2628   13.1615 C.ar    1  UNL1        0.0823
     10 C          61.5188   87.7714   10.1339 C.3     1  UNL1        0.0431
     11 C          61.0474   88.9122    9.2815 C.3     1  UNL1        0.0733
     12 N          61.3037   90.3795    9.4579 N.3     1  UNL1       -0.2969
     13 C          62.0945   91.0686   10.5302 C.3     1  UNL1        0.0733
     14 C          62.8244   90.4605   11.6909 C.3     1  UNL1        0.0431
     15 H          60.3744   90.7956    9.5183 H       1  UNL1        0.1233
     16 O          64.5378   83.6062   12.5321 O.2     1  UNL1       -0.1461
     17 S          63.4739   83.6246   13.5893 S.O2    1  UNL1        0.1026
     18 O          62.4099   83.6430   14.6465 O.2     1  UNL1       -0.1461
     19 C          63.1115   82.2093   13.2493 C.ar    1  UNL1        0.2085
     20 C          63.2266   81.7248   11.8343 C.ar    1  UNL1        0.0400
     21 C          62.8643   80.3096   11.4944 C.ar    1  UNL1        0.0046
     22 C          62.3869   79.3786   12.5693 C.ar    1  UNL1        0.0208
     23 C          62.2718   79.8631   13.9843 C.ar    1  UNL1        0.1004
     24 N          62.6341   81.2784   14.3242 N.ar    1  UNL1       -0.2241
@<TRIPOS>BOND
     1    16    17    2
     2    17    18    2
     3    17    19    1
     4    19    20   ar
     5    20    21   ar
     6    21    22   ar
     7    22    23   ar
     8    23    24   ar
     9    17     1    1
    10     1     2   ar
    11     2     3   ar
    12     3     4   ar
    13     4     5   ar
    14     5     6   ar
    15     6     7   ar
    16     7     8   ar
    17     8     9   ar
    18     7    10    1
    19    10    11    1
    20    11    12    1
    21    12    13    1
    22    13    14    1
    23    24    19   ar
    24     9     1   ar
    25     9     4   ar
    26    14     6    1
    27    12    15    1
@<TRIPOS>MOLECULE
*****
 24 27 0 0 0
SMALL
GASTEIGER

@<TRIPOS>ATOM
      1 N          62.8257   85.7351   12.4552 N.ar    1  UNL1       -0.2064
      2 C          63.6590   86.6883   13.2596 C.ar    1  UNL1        0.1000
      3 C          63.4688   88.0635   12.6914 C.ar    1  UNL1        0.0220
      4 C          62.5180   87.9601   11.5359 C.ar    1  UNL1        0.0187
      5 C          61.9627   88.9904   10.5977 C.ar    1  UNL1       -0.0030
      6 C          61.0100   88.5817    9.5136 C.ar    1  UNL1       -0.0246
      7 C          60.6126   87.1428    9.3677 C.ar    1  UNL1       -0.0232
      8 C          61.1678   86.1124   10.3058 C.ar    1  UNL1        0.0144
      9 C          62.1205   86.5211   11.3899 C.ar    1  UNL1        0.0823
     10 C          59.6840   86.5261    8.3638 C.3     1  UNL1        0.0431
     11 C          58.9237   87.1963    7.2579 C.3     1  UNL1        0.0733
     12 N          58.9040   88.6484    6.8829 N.3     1  UNL1       -0.2969
     13 C          59.6399   89.7893    7.5210 C.3     1  UNL1        0.0733
     14 C          60.5771   89.7596    8.6918 C.3     1  UNL1        0.0431
     15 H          57.9210   88.9141    6.9411 H       1  UNL1        0.1233
     16 O          62.1652   84.5021   14.0500 O.2     1  UNL1       -0.1461
     17 S          62.7167   84.2556   12.6772 S.O2    1  UNL1        0.1026
     18 O          63.2683   84.0091   11.3041 O.2     1  UNL1       -0.1461
     19 C          62.6078   82.7761   12.8990 C.ar    1  UNL1        0.2085
     20 C          61.9780   82.2504   14.1548 C.ar    1  UNL1        0.0400
     21 C          61.8691   80.7709   14.3766 C.ar    1  UNL1        0.0046
     22 C          62.3898   79.8171   13.3427 C.ar    1  UNL1        0.0208
     23 C          63.0196   80.3428   12.0869 C.ar    1  UNL1        0.1004
     24 N          63.1285   81.8223   11.8651 N.ar    1  UNL1       -0.2241
@<TRIPOS>BOND
     1    16    17    2
     2    17    18    2
     3    17    19    1
     4    19    20   ar
     5    20    21   ar
     6    21    22   ar
     7    22    23   ar
     8    23    24   ar
     9    17     1    1
    10     1     2   ar
    11     2     3   ar
    12     3     4   ar
    13     4     5   ar
    14     5     6   ar
    15     6     7   ar
    16     7     8   ar
    17     8     9   ar
    18     7    10    1
    19    10    11    1
    20    11    12    1
    21    12    13    1
    22    13    14    1
    23    24    19   ar
    24     9     1   ar
    25     9     4   ar
    26    14     6    1
    27    12    15    1
@<TRIPOS>MOLECULE
*****
 24 27 0 0 0
SMALL
GASTEIGER

@<TRIPOS>ATOM
      1 N          65.3238   92.0215   12.4099 N.ar    1  UNL1       -0.2064
      2 C          65.7799   91.6206   13.7815 C.ar    1  UNL1        0.1000
      3 C          64.9734   90.4301   14.2085 C.ar    1  UNL1        0.0220
      4 C          64.0190   90.0953   13.1009 C.ar    1  UNL1        0.0187
      5 C          62.9806   89.0218   12.9609 C.ar    1  UNL1       -0.0030
      6 C          62.1588   88.9320   11.7092 C.ar    1  UNL1       -0.0246
      7 C          62.3753   89.9155   10.5977 C.ar    1  UNL1       -0.0232
      8 C          63.4136   90.9890   10.7376 C.ar    1  UNL1        0.0144
      9 C          64.2355   91.0789   11.9892 C.ar    1  UNL1        0.0823
     10 C          61.6707   90.0037    9.2764 C.3     1  UNL1        0.0431
     11 C          60.5754   89.1300    8.7405 C.3     1  UNL1        0.0733
     12 N          59.9144   87.9525    9.3934 N.3     1  UNL1       -0.2969
     13 C          60.1853   87.3577   10.7436 C.3     1  UNL1        0.0733
     14 C          61.1841   87.7936   11.7742 C.3     1  UNL1        0.0431
     15 H          60.0616   87.1825    8.7408 H       1  UNL1        0.1233
     16 O          65.9845   92.2628   10.4086 O.2     1  UNL1       -0.1461
     17 S          65.8616   93.1645   11.6009 S.O2    1  UNL1        0.1026
     18 O          65.7386   94.0662   12.7933 O.2     1  UNL1       -0.1461
     19 C          66.3993   94.3075   10.7920 C.ar    1  UNL1        0.2085
     20 C          66.2665   95.7130   11.2989 C.ar    1  UNL1        0.0400
     21 C          66.8042   96.8560   10.4901 C.ar    1  UNL1        0.0046
     22 C          67.4748   96.5936    9.1742 C.ar    1  UNL1        0.0208
     23 C          67.6077   95.1881    8.6673 C.ar    1  UNL1        0.1004
     24 N          67.0699   94.0451    9.4762 N.ar    1  UNL1       -0.2241
@<TRIPOS>BOND
     1    16    17    2
     2    17    18    2
     3    17    19    1
     4    19    20   ar
     5    20    21   ar
     6    21    22   ar
     7    22    23   ar
     8    23    24   ar
     9    17     1    1
    10     1     2   ar
    11     2     3   ar
    12     3     4   ar
    13     4     5   ar
    14     5     6   ar
    15     6     7   ar
    16     7     8   ar
    17     8     9   ar
    18     7    10    1
    19    10    11    1
    20    11    12    1
    21    12    13    1
    22    13    14    1
    23    24    19   ar
    24     9     1   ar
    25     9     4   ar
    26    14     6    1
    27    12    15    1
@<TRIPOS>MOLECULE
*****
 24 27 0 0 0
SMALL
GASTEIGER

@<TRIPOS>ATOM
      1 N          61.6798   90.2379   11.4712 N.ar    1  UNL1       -0.2064
      2 C          60.3545   90.9234   11.6245 C.ar    1  UNL1        0.1000
      3 C          59.3593   90.2068   10.7607 C.ar    1  UNL1        0.0220
      4 C          60.0697   89.0785   10.0735 C.ar    1  UNL1        0.0187
      5 C          59.5958   88.0360    9.1046 C.ar    1  UNL1       -0.0030
      6 C          60.5562   87.0126    8.5749 C.ar    1  UNL1       -0.0246
      7 C          61.9902   87.0318    9.0140 C.ar    1  UNL1       -0.0232
      8 C          62.4641   88.0743    9.9829 C.ar    1  UNL1        0.0144
      9 C          61.5038   89.0976   10.5127 C.ar    1  UNL1        0.0823
     10 C          63.1041   86.1113    8.6114 C.3     1  UNL1        0.0431
     11 C          63.0587   84.9442    7.6701 C.3     1  UNL1        0.0733
     12 N          61.8885   84.4095    6.8991 N.3     1  UNL1       -0.2969
     13 C          60.4745   84.9097    6.8788 C.3     1  UNL1        0.0733
     14 C          59.8816   86.0682    7.6246 C.3     1  UNL1        0.0431
     15 H          61.8111   83.4363    7.1946 H       1  UNL1        0.1233
     16 O          62.5210   89.8857   13.3865 O.2     1  UNL1       -0.1461
     17 S          62.9570   90.6246   12.1562 S.O2    1  UNL1        0.1026
     18 O          63.3930   91.3636   10.9258 O.2     1  UNL1       -0.1461
     19 C          64.2342   91.0114   12.8411 C.ar    1  UNL1        0.2085
     20 C          64.6218   90.3537   14.1324 C.ar    1  UNL1        0.0400
     21 C          65.8990   90.7405   14.8172 C.ar    1  UNL1        0.0046
     22 C          66.7887   91.7850   14.2110 C.ar    1  UNL1        0.0208
     23 C          66.4011   92.4427   12.9198 C.ar    1  UNL1        0.1004
     24 N          65.1239   92.0559   12.2349 N.ar    1  UNL1       -0.2241
@<TRIPOS>BOND
     1    16    17    2
     2    17    18    2
     3    17    19    1
     4    19    20   ar
     5    20    21   ar
     6    21    22   ar
     7    22    23   ar
     8    23    24   ar
     9    17     1    1
    10     1     2   ar
    11     2     3   ar
    12     3     4   ar
    13     4     5   ar
    14     5     6   ar
    15     6     7   ar
    16     7     8   ar
    17     8     9   ar
    18     7    10    1
    19    10    11    1
    20    11    12    1
    21    12    13    1
    22    13    14    1
    23    24    19   ar
    24     9     1   ar
    25     9     4   ar
    26    14     6    1
    27    12    15    1
@<TRIPOS>MOLECULE
*****
 24 27 0 0 0
SMALL
GASTEIGER

@<TRIPOS>ATOM
      1 N          63.0293   85.2562   15.2623 N.ar    1  UNL1       -0.2064
      2 C          62.4727   84.8394   16.5914 C.ar    1  UNL1        0.1000
      3 C          62.4638   86.0420   17.4879 C.ar    1  UNL1        0.0220
      4 C          63.0149   87.2020   16.7130 C.ar    1  UNL1        0.0187
      5 C          63.2436   88.6377   17.0822 C.ar    1  UNL1       -0.0030
      6 C          63.8219   89.5879   16.0757 C.ar    1  UNL1       -0.0246
      7 C          64.1714   89.1024   14.7003 C.ar    1  UNL1       -0.0232
      8 C          63.9427   87.6666   14.3311 C.ar    1  UNL1        0.0144
      9 C          63.3644   86.7164   15.3375 C.ar    1  UNL1        0.0823
     10 C          64.7536   89.8766   13.5550 C.3     1  UNL1        0.0431
     11 C          65.1300   91.3277   13.5025 C.3     1  UNL1        0.0733
     12 N          65.0173   92.3628   14.5821 N.3     1  UNL1       -0.2969
     13 C          64.5002   92.2026   15.9811 C.3     1  UNL1        0.0733
     14 C          63.9682   90.9677   16.6458 C.3     1  UNL1        0.0431
     15 H          64.4327   93.0932   14.1757 H       1  UNL1        0.1233
     16 O          64.3449   83.6678   14.7663 O.2     1  UNL1       -0.1461
     17 S          63.2178   84.3688   14.0678 S.O2    1  UNL1        0.1026
     18 O          62.0905   85.0699   13.3692 O.2     1  UNL1       -0.1461
     19 C          63.4062   83.4814   12.8732 C.ar    1  UNL1        0.2085
     20 C          64.1657   83.9811   11.6801 C.ar    1  UNL1        0.0400
     21 C          64.3541   83.0937   10.4855 C.ar    1  UNL1        0.0046
     22 C          63.7830   81.7067   10.4839 C.ar    1  UNL1        0.0208
     23 C          63.0235   81.2071   11.6771 C.ar    1  UNL1        0.1004
     24 N          62.8351   82.0944   12.8716 N.ar    1  UNL1       -0.2241
@<TRIPOS>BOND
     1    16    17    2
     2    17    18    2
     3    17    19    1
     4    19    20   ar
     5    20    21   ar
     6    21    22   ar
     7    22    23   ar
     8    23    24   ar
     9    17     1    1
    10     1     2   ar
    11     2     3   ar
    12     3     4   ar
    13     4     5   ar
    14     5     6   ar
    15     6     7   ar
    16     7     8   ar
    17     8     9   ar
    18     7    10    1
    19    10    11    1
    20    11    12    1
    21    12    13    1
    22    13    14    1
    23    24    19   ar
    24     9     1   ar
    25     9     4   ar
    26    14     6    1
    27    12    15    1
@<TRIPOS>MOLECULE
*****
 24 27 0 0 0
SMALL
GASTEIGER

@<TRIPOS>ATOM
      1 N          62.9658   89.6087   11.5548 N.ar    1  UNL1       -0.2064
      2 C          61.9704   89.8821   10.4664 C.ar    1  UNL1        0.1000
      3 C          61.3177   88.5827   10.0982 C.ar    1  UNL1        0.0220
      4 C          61.9096   87.5064   10.9589 C.ar    1  UNL1        0.0187
      5 C          61.6527   86.0307   11.0392 C.ar    1  UNL1       -0.0030
      6 C          62.4145   85.1891   12.0199 C.ar    1  UNL1       -0.0246
      7 C          63.4330   85.8232   12.9200 C.ar    1  UNL1       -0.0232
      8 C          63.6899   87.2988   12.8397 C.ar    1  UNL1        0.0144
      9 C          62.9282   88.1404   11.8591 C.ar    1  UNL1        0.0823
     10 C          64.2960   85.1725   13.9603 C.3     1  UNL1        0.0431
     11 C          64.3534   83.7270   14.3571 C.3     1  UNL1        0.0733
     12 N          63.5622   82.5754   13.8118 N.3     1  UNL1       -0.2969
     13 C          62.5180   82.5845   12.7349 C.3     1  UNL1        0.0733
     14 C          62.0072   83.7478   11.9374 C.3     1  UNL1        0.0431
     15 H          63.0871   82.1840   14.6251 H       1  UNL1        0.1233
     16 O          63.9356   91.3907   10.9351 O.2     1  UNL1       -0.1461
     17 S          63.8445   90.6252   12.2217 S.O2    1  UNL1        0.1026
     18 O          63.7534   89.8595   13.5084 O.2     1  UNL1       -0.1461
     19 C          64.7232   91.6415   12.8887 C.ar    1  UNL1        0.2085
     20 C          64.9430   91.5852   14.3715 C.ar    1  UNL1        0.0400
     21 C          65.8216   92.6015   15.0385 C.ar    1  UNL1        0.0046
     22 C          66.4806   93.6742   14.2229 C.ar    1  UNL1        0.0208
     23 C          66.2608   93.7304   12.7401 C.ar    1  UNL1        0.1004
     24 N          65.3821   92.7141   12.0731 N.ar    1  UNL1       -0.2241
@<TRIPOS>BOND
     1    16    17    2
     2    17    18    2
     3    17    19    1
     4    19    20   ar
     5    20    21   ar
     6    21    22   ar
     7    22    23   ar
     8    23    24   ar
     9    17     1    1
    10     1     2   ar
    11     2     3   ar
    12     3     4   ar
    13     4     5   ar
    14     5     6   ar
    15     6     7   ar
    16     7     8   ar
    17     8     9   ar
    18     7    10    1
    19    10    11    1
    20    11    12    1
    21    12    13    1
    22    13    14    1
    23    24    19   ar
    24     9     1   ar
    25     9     4   ar
    26    14     6    1
    27    12    15    1
@<TRIPOS>MOLECULE
*****
 24 27 0 0 0
SMALL
GASTEIGER

@<TRIPOS>ATOM
      1 N          62.4109   87.8201   11.6082 N.ar    1  UNL1       -0.2064
      2 C          63.0935   88.9356   12.3429 C.ar    1  UNL1        0.1000
      3 C          63.8881   88.3342   13.4640 C.ar    1  UNL1        0.0220
      4 C          63.6966   86.8471   13.4222 C.ar    1  UNL1        0.0187
      5 C          64.2357   85.7412   14.2805 C.ar    1  UNL1       -0.0030
      6 C          63.8617   84.3175   13.9917 C.ar    1  UNL1       -0.0246
      7 C          62.9488   83.9998   12.8448 C.ar    1  UNL1       -0.0232
      8 C          62.4097   85.1056   11.9866 C.ar    1  UNL1        0.0144
      9 C          62.7837   86.5293   12.2753 C.ar    1  UNL1        0.0823
     10 C          62.4541   82.6598   12.3867 C.3     1  UNL1        0.0431
     11 C          62.7502   81.3067   12.9625 C.3     1  UNL1        0.0733
     12 N          63.6141   80.9594   14.1384 N.3     1  UNL1       -0.2969
     13 C          64.3953   81.8794   15.0292 C.3     1  UNL1        0.0733
     14 C          64.5055   83.3739   14.9639 C.3     1  UNL1        0.0431
     15 H          64.3102   80.3154   13.7627 H       1  UNL1        0.1233
     16 O          62.6374   87.5479    9.5167 O.2     1  UNL1       -0.1461
     17 S          61.5131   87.9691   10.4158 S.O2    1  UNL1        0.1026
     18 O          60.3888   88.3902   11.3150 O.2     1  UNL1       -0.1461
     19 C          60.6153   88.1181    9.2235 C.ar    1  UNL1        0.2085
     20 C          59.9052   86.9206    8.6650 C.ar    1  UNL1        0.0400
     21 C          59.0074   87.0696    7.4727 C.ar    1  UNL1        0.0046
     22 C          58.8196   88.4160    6.8388 C.ar    1  UNL1        0.0208
     23 C          59.5297   89.6135    7.3973 C.ar    1  UNL1        0.1004
     24 N          60.4275   89.4645    8.5896 N.ar    1  UNL1       -0.2241
@<TRIPOS>BOND
     1    16    17    2
     2    17    18    2
     3    17    19    1
     4    19    20   ar
     5    20    21   ar
     6    21    22   ar
     7    22    23   ar
     8    23    24   ar
     9    17     1    1
    10     1     2   ar
    11     2     3   ar
    12     3     4   ar
    13     4     5   ar
    14     5     6   ar
    15     6     7   ar
    16     7     8   ar
    17     8     9   ar
    18     7    10    1
    19    10    11    1
    20    11    12    1
    21    12    13    1
    22    13    14    1
    23    24    19   ar
    24     9     1   ar
    25     9     4   ar
    26    14     6    1
    27    12    15    1
@<TRIPOS>MOLECULE
*****
 24 27 0 0 0
SMALL
GASTEIGER

@<TRIPOS>ATOM
      1 N          62.7630   88.3903   12.0203 N.ar    1  UNL1       -0.2064
      2 C          62.9521   87.4847   13.2009 C.ar    1  UNL1        0.1000
      3 C          63.8928   88.1581   14.1557 C.ar    1  UNL1        0.0220
      4 C          64.2851   89.4799   13.5651 C.ar    1  UNL1        0.0187
      5 C          65.1879   90.5715   14.0587 C.ar    1  UNL1       -0.0030
      6 C          65.3925   91.8065   13.2323 C.ar    1  UNL1       -0.0246
      7 C          64.6943   91.9500   11.9126 C.ar    1  UNL1       -0.0232
      8 C          63.7915   90.8586   11.4190 C.ar    1  UNL1        0.0144
      9 C          63.5868   89.6235   12.2453 C.ar    1  UNL1        0.0823
     10 C          64.7588   93.0898   10.9394 C.3     1  UNL1        0.0431
     11 C          65.5375   94.3674   11.0458 C.3     1  UNL1        0.0733
     12 N          66.4439   94.8208   12.1515 N.3     1  UNL1       -0.2969
     13 C          66.7956   94.1087   13.4240 C.3     1  UNL1        0.0733
     14 C          66.3277   92.7672   13.9050 C.3     1  UNL1        0.0431
     15 H          66.0489   95.7102   12.4572 H       1  UNL1        0.1233
     16 O          60.9149   87.3992   11.7011 O.2     1  UNL1       -0.1461
     17 S          61.9014   88.1118   10.8244 S.O2    1  UNL1        0.1026
     18 O          62.8881   88.8245    9.9476 O.2     1  UNL1       -0.1461
     19 C          61.0399   87.8334    9.6285 C.ar    1  UNL1        0.2085
     20 C          60.3526   88.9628    8.9199 C.ar    1  UNL1        0.0400
     21 C          59.4911   88.6844    7.7241 C.ar    1  UNL1        0.0046
     22 C          59.3168   87.2766    7.2366 C.ar    1  UNL1        0.0208
     23 C          60.0041   86.1471    7.9452 C.ar    1  UNL1        0.1004
     24 N          60.8656   86.4255    9.1411 N.ar    1  UNL1       -0.2241
@<TRIPOS>BOND
     1    16    17    2
     2    17    18    2
     3    17    19    1
     4    19    20   ar
     5    20    21   ar
     6    21    22   ar
     7    22    23   ar
     8    23    24   ar
     9    17     1    1
    10     1     2   ar
    11     2     3   ar
    12     3     4   ar
    13     4     5   ar
    14     5     6   ar
    15     6     7   ar
    16     7     8   ar
    17     8     9   ar
    18     7    10    1
    19    10    11    1
    20    11    12    1
    21    12    13    1
    22    13    14    1
    23    24    19   ar
    24     9     1   ar
    25     9     4   ar
    26    14     6    1
    27    12    15    1
