@<TRIPOS>MOLECULE
*****
 42 47 0 0 0
SMALL
GASTEIGER

@<TRIPOS>ATOM
      1 N          60.2810   93.6292    1.3296 N.3     1  UNL1       -0.2688
      2 C          59.9730   95.0859    1.1467 C.3     1  UNL1        0.0741
      3 C          59.1849   95.5419   -0.0454 C.3     1  UNL1        0.0372
      4 C          58.7048   94.5412   -1.0545 C.3     1  UNL1        0.0799
      5 C          59.0128   93.0846   -0.8715 C.3     1  UNL1        0.0372
      6 C          59.8009   92.6286    0.3205 C.3     1  UNL1        0.0741
      7 N          57.9167   94.9972   -2.2465 N.am    1  UNL1       -0.2618
      8 C          56.4225   95.1006   -2.3286 C.2     1  UNL1        0.3074
      9 O          55.4541   94.7662   -1.2330 O.2     1  UNL1       -0.2523
     10 N          56.0668   95.5972   -3.6986 N.am    1  UNL1       -0.2635
     11 C          57.3411   95.8007   -4.4632 C.3     1  UNL1        0.1192
     12 C          58.4844   95.4298   -3.5658 C.3     1  UNL1        0.1191
     13 C          54.6802   95.8465   -4.2135 C.3     1  UNL1        0.0819
     14 C          54.4178   95.8488   -5.6904 C.3     1  UNL1        0.0520
     15 C          53.0311   96.0981   -6.2052 C.3     1  UNL1        0.1439
     16 O          51.9070   96.3451   -5.2433 O.3     1  UNL1       -0.3537
     17 C          52.1695   96.3428   -3.7665 C.3     1  UNL1        0.1439
     18 C          53.5561   96.0935   -3.2516 C.3     1  UNL1        0.0520
     19 C          59.9399   95.4825   -3.9247 C.ar    1  UNL1       -0.0026
     20 C          60.5998   96.8033   -4.1894 C.ar    1  UNL1       -0.0026
     21 C          62.0553   96.8559   -4.5483 C.ar    1  UNL1       -0.0003
     22 C          62.8509   95.5878   -4.6425 C.ar    1  UNL1       -0.0000
     23 C          62.1909   94.2670   -4.3779 C.ar    1  UNL1       -0.0003
     24 C          60.7355   94.2144   -4.0190 C.ar    1  UNL1       -0.0026
     25 C          61.0691   93.1732    2.5217 C.3     1  UNL1        0.1003
     26 C          62.6762   91.0345    3.8795 C.3     1  UNL1        0.0519
     27 C          61.2307   91.2244    4.2323 C.ar    1  UNL1        0.0598
     28 N          60.5887   90.3450    5.2640 N.ar    1  UNL1       -0.2160
     29 C          59.1432   90.5349    5.6168 C.ar    1  UNL1        0.2293
     30 C          58.3397   91.6042    4.9379 C.ar    1  UNL1        0.0578
     31 C          58.9816   92.4836    3.9062 C.ar    1  UNL1        0.0031
     32 C          60.4271   92.2937    3.5534 C.ar    1  UNL1        0.0077
     33 O          58.5012   89.6554    6.6485 O.3     1  UNL1       -0.4361
     34 C          59.3491   88.7635    7.5062 C.ar    1  UNL1        0.1472
     35 C          60.1971   89.3540    8.5936 C.ar    1  UNL1        0.0376
     36 C          61.0450   88.4622    9.4513 C.ar    1  UNL1        0.0043
     37 C          61.0449   86.9798    9.2216 C.ar    1  UNL1        0.0142
     38 C          60.1969   86.3894    8.1343 C.ar    1  UNL1        0.0043
     39 C          59.3490   87.2812    7.2766 C.ar    1  UNL1        0.0376
     40 C          61.8928   86.0879   10.0793 C.2     1  UNL1        0.0729
     41 O          62.9140   85.1894    9.4471 O.co2   1  UNL1       -0.5446
     42 O          61.7194   86.0946   11.5693 O.co2   1  UNL1       -0.5446
@<TRIPOS>UNITY_ATOM_ATTR
41 1
charge -1
@<TRIPOS>BOND
     1    26    27    1
     2    27    28   ar
     3    28    29   ar
     4    29    33    1
     5    33    34    1
     6    34    35   ar
     7    35    36   ar
     8    36    37   ar
     9    37    40    1
    10    40    41   ar
    11    40    42   ar
    12    37    38   ar
    13    38    39   ar
    14    29    30   ar
    15    30    31   ar
    16    31    32   ar
    17    32    25    1
    18    25     1    1
    19     1     2    1
    20     2     3    1
    21     3     4    1
    22     4     7    1
    23     7     8   am
    24     8     9    2
    25     8    10   am
    26    10    13    1
    27    13    14    1
    28    14    15    1
    29    15    16    1
    30    16    17    1
    31    17    18    1
    32    10    11    1
    33    11    12    1
    34    12    19    1
    35    19    20   ar
    36    20    21   ar
    37    21    22   ar
    38    22    23   ar
    39    23    24   ar
    40     4     5    1
    41     5     6    1
    42    32    27   ar
    43     6     1    1
    44    39    34   ar
    45    12     7    1
    46    24    19   ar
    47    18    13    1
@<TRIPOS>MOLECULE
*****
 42 47 0 0 0
SMALL
GASTEIGER

@<TRIPOS>ATOM
      1 N          60.3625   93.4949    1.8731 N.3     1  UNL1       -0.2688
      2 C          59.7216   94.7333    1.3203 C.3     1  UNL1        0.0741
      3 C          59.3707   94.8101   -0.1361 C.3     1  UNL1        0.0372
      4 C          59.6607   93.6483   -1.0396 C.3     1  UNL1        0.0799
      5 C          60.3015   92.4099   -0.4868 C.3     1  UNL1        0.0372
      6 C          60.6524   92.3332    0.9696 C.3     1  UNL1        0.0741
      7 N          59.3098   93.7250   -2.4960 N.am    1  UNL1       -0.2618
      8 C          57.9711   93.4158   -3.0978 C.2     1  UNL1        0.3074
      9 O          56.7482   92.9755   -2.3490 O.2     1  UNL1       -0.2523
     10 N          58.0699   93.6241   -4.5800 N.am    1  UNL1       -0.2635
     11 C          59.4697   94.0621   -4.8942 C.3     1  UNL1        0.1192
     12 C          60.2360   94.1245   -3.6062 C.3     1  UNL1        0.1191
     13 C          56.9632   93.4287   -5.5735 C.3     1  UNL1        0.0819
     14 C          56.2415   94.6175   -6.1356 C.3     1  UNL1        0.0520
     15 C          55.1348   94.4221   -7.1291 C.3     1  UNL1        0.1439
     16 O          54.7499   93.0380   -7.5605 O.3     1  UNL1       -0.3537
     17 C          55.4717   91.8492   -6.9984 C.3     1  UNL1        0.1439
     18 C          56.5783   92.0446   -6.0049 C.3     1  UNL1        0.0520
     19 C          61.6757   94.5173   -3.4550 C.ar    1  UNL1       -0.0026
     20 C          62.0311   95.8888   -2.9620 C.ar    1  UNL1       -0.0026
     21 C          63.4708   96.2817   -2.8108 C.ar    1  UNL1       -0.0003
     22 C          64.5551   95.3032   -3.1526 C.ar    1  UNL1       -0.0000
     23 C          64.1997   93.9318   -3.6456 C.ar    1  UNL1       -0.0003
     24 C          62.7601   93.5390   -3.7968 C.ar    1  UNL1       -0.0026
     25 C          60.7134   93.4181    3.3295 C.3     1  UNL1        0.1003
     26 C          62.4932   91.0924    3.9799 C.3     1  UNL1        0.0519
     27 C          61.0840   91.1247    4.4927 C.ar    1  UNL1        0.0598
     28 N          60.5646   89.9943    5.3307 N.ar    1  UNL1       -0.2160
     29 C          59.1554   90.0267    5.8435 C.ar    1  UNL1        0.2293
     30 C          58.2655   91.1895    5.5183 C.ar    1  UNL1        0.0578
     31 C          58.7848   92.3200    4.6803 C.ar    1  UNL1        0.0031
     32 C          60.1941   92.2876    4.1675 C.ar    1  UNL1        0.0077
     33 O          58.6360   88.8961    6.6816 O.3     1  UNL1       -0.4361
     34 C          59.4757   88.3389    7.7926 C.ar    1  UNL1        0.1472
     35 C          59.6883   86.8580    7.9017 C.ar    1  UNL1        0.0376
     36 C          60.5280   86.3007    9.0127 C.ar    1  UNL1        0.0043
     37 C          61.1552   87.2243   10.0146 C.ar    1  UNL1        0.0142
     38 C          60.9426   88.7051    9.9054 C.ar    1  UNL1        0.0043
     39 C          60.1029   89.2624    8.7944 C.ar    1  UNL1        0.0376
     40 C          61.9949   86.6671   11.1256 C.2     1  UNL1        0.0729
     41 O          61.9590   85.1985   11.4286 O.co2   1  UNL1       -0.5446
     42 O          62.8705   87.5785   11.9335 O.co2   1  UNL1       -0.5446
@<TRIPOS>UNITY_ATOM_ATTR
41 1
charge -1
@<TRIPOS>BOND
     1    26    27    1
     2    27    28   ar
     3    28    29   ar
     4    29    33    1
     5    33    34    1
     6    34    35   ar
     7    35    36   ar
     8    36    37   ar
     9    37    40    1
    10    40    41   ar
    11    40    42   ar
    12    37    38   ar
    13    38    39   ar
    14    29    30   ar
    15    30    31   ar
    16    31    32   ar
    17    32    25    1
    18    25     1    1
    19     1     2    1
    20     2     3    1
    21     3     4    1
    22     4     7    1
    23     7     8   am
    24     8     9    2
    25     8    10   am
    26    10    13    1
    27    13    14    1
    28    14    15    1
    29    15    16    1
    30    16    17    1
    31    17    18    1
    32    10    11    1
    33    11    12    1
    34    12    19    1
    35    19    20   ar
    36    20    21   ar
    37    21    22   ar
    38    22    23   ar
    39    23    24   ar
    40     4     5    1
    41     5     6    1
    42    32    27   ar
    43     6     1    1
    44    39    34   ar
    45    12     7    1
    46    24    19   ar
    47    18    13    1
@<TRIPOS>MOLECULE
*****
 42 47 0 0 0
SMALL
GASTEIGER

@<TRIPOS>ATOM
      1 N          59.4431   88.9391    7.6241 N.3     1  UNL1       -0.2688
      2 C          59.7585   89.7310    8.8585 C.3     1  UNL1        0.0741
      3 C          60.5985   89.1255    9.9437 C.3     1  UNL1        0.0372
      4 C          61.1230   87.7281    9.7947 C.3     1  UNL1        0.0799
      5 C          60.8076   86.9363    8.5604 C.3     1  UNL1        0.0372
      6 C          59.9676   87.5418    7.4751 C.3     1  UNL1        0.0741
      7 N          61.9630   87.1226   10.8799 N.am    1  UNL1       -0.2618
      8 C          61.9712   85.6788   11.2866 C.2     1  UNL1        0.3074
      9 O          61.1410   84.5870   10.6794 O.2     1  UNL1       -0.2523
     10 N          62.9555   85.5184   12.4071 N.am    1  UNL1       -0.2635
     11 C          63.5556   86.8631   12.6929 C.3     1  UNL1        0.1192
     12 C          62.9421   87.8545   11.7491 C.3     1  UNL1        0.1191
     13 C          63.2823   84.2381   13.1170 C.3     1  UNL1        0.0819
     14 C          63.5693   82.9951   12.3279 C.3     1  UNL1        0.0520
     15 C          63.8961   81.7148   13.0378 C.3     1  UNL1        0.1439
     16 O          63.9360   81.6775   14.5368 O.3     1  UNL1       -0.3537
     17 C          63.6491   82.9205   15.3259 C.3     1  UNL1        0.1439
     18 C          63.3222   84.2008   14.6160 C.3     1  UNL1        0.0520
     19 C          63.2533   89.3205   11.6856 C.ar    1  UNL1       -0.0026
     20 C          63.1849   90.0457   10.3742 C.ar    1  UNL1       -0.0026
     21 C          63.4960   91.5117   10.3107 C.ar    1  UNL1       -0.0003
     22 C          63.8756   92.2525   11.5586 C.ar    1  UNL1       -0.0000
     23 C          63.9440   91.5274   12.8698 C.ar    1  UNL1       -0.0003
     24 C          63.6328   90.0615   12.9333 C.ar    1  UNL1       -0.0026
     25 C          58.6031   89.5447    6.5389 C.3     1  UNL1        0.1003
     26 C          56.8558   91.4540    5.0218 C.3     1  UNL1        0.0519
     27 C          58.3408   91.4664    4.8102 C.ar    1  UNL1        0.0598
     28 N          58.9521   92.4334    3.8401 N.ar    1  UNL1       -0.2160
     29 C          60.4370   92.4458    3.6285 C.ar    1  UNL1        0.2293
     30 C          61.3107   91.4912    4.3870 C.ar    1  UNL1        0.0578
     31 C          60.6994   90.5241    5.3571 C.ar    1  UNL1        0.0031
     32 C          59.2144   90.5118    5.5687 C.ar    1  UNL1        0.0077
     33 O          61.0483   93.4129    2.6584 O.3     1  UNL1       -0.4361
     34 C          60.6208   93.4041    1.2206 C.ar    1  UNL1        0.1472
     35 C          61.4951   92.7661    0.1821 C.ar    1  UNL1        0.0376
     36 C          61.0676   92.7573   -1.2557 C.ar    1  UNL1        0.0043
     37 C          59.7657   93.3866   -1.6549 C.ar    1  UNL1        0.0142
     38 C          58.8915   94.0246   -0.6163 C.ar    1  UNL1        0.0043
     39 C          59.3190   94.0333    0.8214 C.ar    1  UNL1        0.0376
     40 C          59.3382   93.3778   -3.0926 C.2     1  UNL1        0.0729
     41 O          59.9757   94.3198   -4.0704 O.co2   1  UNL1       -0.5446
     42 O          58.2731   92.4269   -3.5526 O.co2   1  UNL1       -0.5446
@<TRIPOS>UNITY_ATOM_ATTR
41 1
charge -1
@<TRIPOS>BOND
     1    26    27    1
     2    27    28   ar
     3    28    29   ar
     4    29    33    1
     5    33    34    1
     6    34    35   ar
     7    35    36   ar
     8    36    37   ar
     9    37    40    1
    10    40    41   ar
    11    40    42   ar
    12    37    38   ar
    13    38    39   ar
    14    29    30   ar
    15    30    31   ar
    16    31    32   ar
    17    32    25    1
    18    25     1    1
    19     1     2    1
    20     2     3    1
    21     3     4    1
    22     4     7    1
    23     7     8   am
    24     8     9    2
    25     8    10   am
    26    10    13    1
    27    13    14    1
    28    14    15    1
    29    15    16    1
    30    16    17    1
    31    17    18    1
    32    10    11    1
    33    11    12    1
    34    12    19    1
    35    19    20   ar
    36    20    21   ar
    37    21    22   ar
    38    22    23   ar
    39    23    24   ar
    40     4     5    1
    41     5     6    1
    42    32    27   ar
    43     6     1    1
    44    39    34   ar
    45    12     7    1
    46    24    19   ar
    47    18    13    1
@<TRIPOS>MOLECULE
*****
 42 47 0 0 0
SMALL
GASTEIGER

@<TRIPOS>ATOM
      1 N          60.0982   89.0612    8.3434 N.3     1  UNL1       -0.2688
      2 C          61.2738   88.1334    8.4286 C.3     1  UNL1        0.0741
      3 C          62.1757   88.1736    9.6266 C.3     1  UNL1        0.0372
      4 C          61.9019   89.1416   10.7393 C.3     1  UNL1        0.0799
      5 C          60.7264   90.0694   10.6540 C.3     1  UNL1        0.0372
      6 C          59.8245   90.0292    9.4561 C.3     1  UNL1        0.0741
      7 N          62.8038   89.1818   11.9372 N.am    1  UNL1       -0.2618
      8 C          63.3381   90.4182   12.5975 C.2     1  UNL1        0.3074
      9 O          63.0644   91.8314   12.1757 O.2     1  UNL1       -0.2523
     10 N          64.1943   89.9932   13.7535 N.am    1  UNL1       -0.2635
     11 C          64.1891   88.4942   13.8077 C.3     1  UNL1        0.1192
     12 C          63.3298   87.9928   12.6852 C.3     1  UNL1        0.1191
     13 C          64.9269   90.9069   14.6908 C.3     1  UNL1        0.0819
     14 C          66.3494   91.2888   14.4066 C.3     1  UNL1        0.0520
     15 C          67.0821   92.2024   15.3439 C.3     1  UNL1        0.1439
     16 O          66.3923   92.7341   16.5652 O.3     1  UNL1       -0.3537
     17 C          64.9698   92.3522   16.8492 C.3     1  UNL1        0.1439
     18 C          64.2372   91.4385   15.9120 C.3     1  UNL1        0.0520
     19 C          63.0462   86.5547   12.3666 C.ar    1  UNL1       -0.0026
     20 C          62.2987   86.1968   11.1162 C.ar    1  UNL1       -0.0026
     21 C          62.0151   84.7587   10.7976 C.ar    1  UNL1       -0.0003
     22 C          62.4789   83.6785   11.7293 C.ar    1  UNL1       -0.0000
     23 C          63.2263   84.0364   12.9796 C.ar    1  UNL1       -0.0003
     24 C          63.5099   85.4744   13.2982 C.ar    1  UNL1       -0.0026
     25 C          59.1963   89.0210    7.1455 C.3     1  UNL1        0.1003
     26 C          56.7017   90.1700    5.9385 C.3     1  UNL1        0.0519
     27 C          58.0464   90.6640    5.4937 C.ar    1  UNL1        0.0598
     28 N          58.1438   91.7325    4.4455 N.ar    1  UNL1       -0.2160
     29 C          59.4885   92.2265    4.0007 C.ar    1  UNL1        0.2293
     30 C          60.7358   91.6520    4.6042 C.ar    1  UNL1        0.0578
     31 C          60.6384   90.5835    5.6524 C.ar    1  UNL1        0.0031
     32 C          59.2937   90.0895    6.0972 C.ar    1  UNL1        0.0077
     33 O          59.5859   93.2950    2.9524 O.3     1  UNL1       -0.4361
     34 C          60.8962   93.5616    2.2728 C.ar    1  UNL1        0.1472
     35 C          61.2386   94.9511    1.8228 C.ar    1  UNL1        0.0376
     36 C          62.5490   95.2177    1.1432 C.ar    1  UNL1        0.0043
     37 C          63.5168   94.0950    0.9135 C.ar    1  UNL1        0.0142
     38 C          63.1744   92.7057    1.3634 C.ar    1  UNL1        0.0043
     39 C          61.8641   92.4390    2.0431 C.ar    1  UNL1        0.0376
     40 C          64.8272   94.3616    0.2338 C.2     1  UNL1        0.0729
     41 O          64.9369   95.4640   -0.7774 O.co2   1  UNL1       -0.5446
     42 O          66.0278   93.5258    0.5654 O.co2   1  UNL1       -0.5446
@<TRIPOS>UNITY_ATOM_ATTR
41 1
charge -1
@<TRIPOS>BOND
     1    26    27    1
     2    27    28   ar
     3    28    29   ar
     4    29    33    1
     5    33    34    1
     6    34    35   ar
     7    35    36   ar
     8    36    37   ar
     9    37    40    1
    10    40    41   ar
    11    40    42   ar
    12    37    38   ar
    13    38    39   ar
    14    29    30   ar
    15    30    31   ar
    16    31    32   ar
    17    32    25    1
    18    25     1    1
    19     1     2    1
    20     2     3    1
    21     3     4    1
    22     4     7    1
    23     7     8   am
    24     8     9    2
    25     8    10   am
    26    10    13    1
    27    13    14    1
    28    14    15    1
    29    15    16    1
    30    16    17    1
    31    17    18    1
    32    10    11    1
    33    11    12    1
    34    12    19    1
    35    19    20   ar
    36    20    21   ar
    37    21    22   ar
    38    22    23   ar
    39    23    24   ar
    40     4     5    1
    41     5     6    1
    42    32    27   ar
    43     6     1    1
    44    39    34   ar
    45    12     7    1
    46    24    19   ar
    47    18    13    1
@<TRIPOS>MOLECULE
*****
 42 47 0 0 0
SMALL
GASTEIGER

@<TRIPOS>ATOM
      1 N          59.3639   88.5265    7.5361 N.3     1  UNL1       -0.2688
      2 C          60.0444   87.1983    7.3844 C.3     1  UNL1        0.0741
      3 C          60.9094   86.6683    8.4894 C.3     1  UNL1        0.0372
      4 C          61.0939   87.4665    9.7459 C.3     1  UNL1        0.0799
      5 C          60.4135   88.7946    9.8975 C.3     1  UNL1        0.0372
      6 C          59.5485   89.3246    8.7926 C.3     1  UNL1        0.0741
      7 N          61.9589   86.9365   10.8509 N.am    1  UNL1       -0.2618
      8 C          62.0242   85.5109   11.3129 C.2     1  UNL1        0.3074
      9 O          61.2360   84.3650   10.7511 O.2     1  UNL1       -0.2523
     10 N          63.0162   85.4324   12.4354 N.am    1  UNL1       -0.2635
     11 C          63.5640   86.8094   12.6671 C.3     1  UNL1        0.1192
     12 C          62.9105   87.7390   11.6878 C.3     1  UNL1        0.1191
     13 C          63.3940   84.1942   13.1931 C.3     1  UNL1        0.0819
     14 C          63.6562   82.9145   12.4557 C.3     1  UNL1        0.0520
     15 C          64.0340   81.6763   13.2134 C.3     1  UNL1        0.1439
     16 O          64.1496   81.7178   14.7084 O.3     1  UNL1       -0.3537
     17 C          63.8874   82.9975   15.4457 C.3     1  UNL1        0.1439
     18 C          63.5096   84.2357   14.6880 C.3     1  UNL1        0.0520
     19 C          63.1642   89.2124   11.5667 C.ar    1  UNL1       -0.0026
     20 C          62.9870   89.8978   10.2442 C.ar    1  UNL1       -0.0026
     21 C          63.2407   91.3713   10.1231 C.ar    1  UNL1       -0.0003
     22 C          63.6716   92.1593   11.3245 C.ar    1  UNL1       -0.0000
     23 C          63.8488   91.4740   12.6469 C.ar    1  UNL1       -0.0003
     24 C          63.5951   90.0006   12.7680 C.ar    1  UNL1       -0.0026
     25 C          58.4989   89.0565    6.4311 C.3     1  UNL1        0.1003
     26 C          56.4457   90.9551    5.3451 C.3     1  UNL1        0.0519
     27 C          57.9046   91.2138    5.1110 C.ar    1  UNL1        0.0598
     28 N          58.3369   92.4218    4.3340 N.ar    1  UNL1       -0.2160
     29 C          59.7958   92.6805    4.0999 C.ar    1  UNL1        0.2293
     30 C          60.8224   91.7312    4.6429 C.ar    1  UNL1        0.0578
     31 C          60.3901   90.5232    5.4200 C.ar    1  UNL1        0.0031
     32 C          58.9312   90.2645    5.6540 C.ar    1  UNL1        0.0077
     33 O          60.2280   93.8885    3.3228 O.3     1  UNL1       -0.4361
     34 C          60.6571   93.7462    1.8925 C.ar    1  UNL1        0.1472
     35 C          62.1103   93.8401    1.5325 C.ar    1  UNL1        0.0376
     36 C          62.5393   93.6978    0.1022 C.ar    1  UNL1        0.0043
     37 C          61.5151   93.4615   -0.9680 C.ar    1  UNL1        0.0142
     38 C          60.0620   93.3676   -0.6080 C.ar    1  UNL1        0.0043
     39 C          59.6330   93.5100    0.8223 C.ar    1  UNL1        0.0376
     40 C          61.9442   93.3192   -2.3983 C.2     1  UNL1        0.0729
     41 O          60.9677   93.5887   -3.5046 O.co2   1  UNL1       -0.5446
     42 O          63.3497   92.9073   -2.7223 O.co2   1  UNL1       -0.5446
@<TRIPOS>UNITY_ATOM_ATTR
41 1
charge -1
@<TRIPOS>BOND
     1    26    27    1
     2    27    28   ar
     3    28    29   ar
     4    29    33    1
     5    33    34    1
     6    34    35   ar
     7    35    36   ar
     8    36    37   ar
     9    37    40    1
    10    40    41   ar
    11    40    42   ar
    12    37    38   ar
    13    38    39   ar
    14    29    30   ar
    15    30    31   ar
    16    31    32   ar
    17    32    25    1
    18    25     1    1
    19     1     2    1
    20     2     3    1
    21     3     4    1
    22     4     7    1
    23     7     8   am
    24     8     9    2
    25     8    10   am
    26    10    13    1
    27    13    14    1
    28    14    15    1
    29    15    16    1
    30    16    17    1
    31    17    18    1
    32    10    11    1
    33    11    12    1
    34    12    19    1
    35    19    20   ar
    36    20    21   ar
    37    21    22   ar
    38    22    23   ar
    39    23    24   ar
    40     4     5    1
    41     5     6    1
    42    32    27   ar
    43     6     1    1
    44    39    34   ar
    45    12     7    1
    46    24    19   ar
    47    18    13    1
@<TRIPOS>MOLECULE
*****
 42 47 0 0 0
SMALL
GASTEIGER

@<TRIPOS>ATOM
      1 N          59.7149   93.3278    2.5314 N.3     1  UNL1       -0.2688
      2 C          59.7366   94.6568    1.8360 C.3     1  UNL1        0.0741
      3 C          59.5808   94.7262    0.3458 C.3     1  UNL1        0.0372
      4 C          59.4032   93.4666   -0.4492 C.3     1  UNL1        0.0799
      5 C          59.3815   92.1377    0.2461 C.3     1  UNL1        0.0372
      6 C          59.5373   92.0683    1.7364 C.3     1  UNL1        0.0741
      7 N          59.2474   93.5359   -1.9395 N.am    1  UNL1       -0.2618
      8 C          58.0036   93.2104   -2.7120 C.2     1  UNL1        0.3074
      9 O          56.6971   92.7583   -2.1300 O.2     1  UNL1       -0.2523
     10 N          58.2955   93.4163   -4.1689 N.am    1  UNL1       -0.2635
     11 C          59.7198   93.8691   -4.2967 C.3     1  UNL1        0.1192
     12 C          60.3081   93.9430   -2.9189 C.3     1  UNL1        0.1191
     13 C          57.3323   93.2063   -5.2994 C.3     1  UNL1        0.0819
     14 C          56.6999   91.8618   -5.5057 C.3     1  UNL1        0.0520
     15 C          55.7366   91.6518   -6.6362 C.3     1  UNL1        0.1439
     16 O          55.4058   92.7861   -7.5603 O.3     1  UNL1       -0.3537
     17 C          56.0382   94.1305   -7.3538 C.3     1  UNL1        0.1439
     18 C          57.0015   94.3405   -6.2233 C.3     1  UNL1        0.0520
     19 C          61.7108   94.3522   -2.5799 C.ar    1  UNL1       -0.0026
     20 C          62.5692   93.4587   -1.7344 C.ar    1  UNL1       -0.0026
     21 C          63.9720   93.8679   -1.3955 C.ar    1  UNL1       -0.0003
     22 C          64.5164   95.1706   -1.9021 C.ar    1  UNL1       -0.0000
     23 C          63.6580   96.0640   -2.7476 C.ar    1  UNL1       -0.0003
     24 C          62.2554   95.6549   -3.0865 C.ar    1  UNL1       -0.0026
     25 C          59.8707   93.2585    4.0216 C.3     1  UNL1        0.1003
     26 C          57.0531   92.4137    4.6112 C.3     1  UNL1        0.0519
     27 C          58.2007   91.5476    5.0386 C.ar    1  UNL1        0.0598
     28 N          57.9396   90.2591    5.7608 N.ar    1  UNL1       -0.2160
     29 C          59.0873   89.3930    6.1882 C.ar    1  UNL1        0.2293
     30 C          60.4961   89.8153    5.8935 C.ar    1  UNL1        0.0578
     31 C          60.7572   91.1038    5.1713 C.ar    1  UNL1        0.0031
     32 C          59.6095   91.9699    4.7438 C.ar    1  UNL1        0.0077
     33 O          58.8261   88.1044    6.9104 O.3     1  UNL1       -0.4361
     34 C          59.7248   87.6786    8.0334 C.ar    1  UNL1        0.1472
     35 C          59.8131   88.5090    9.2795 C.ar    1  UNL1        0.0376
     36 C          60.7118   88.0832   10.4024 C.ar    1  UNL1        0.0043
     37 C          61.5223   86.8269   10.2792 C.ar    1  UNL1        0.0142
     38 C          61.4339   85.9966    9.0332 C.ar    1  UNL1        0.0043
     39 C          60.5352   86.4224    7.9103 C.ar    1  UNL1        0.0376
     40 C          62.4210   86.4011   11.4022 C.2     1  UNL1        0.0729
     41 O          63.0545   87.4324   12.2881 O.co2   1  UNL1       -0.5446
     42 O          62.6861   84.9438   11.6392 O.co2   1  UNL1       -0.5446
@<TRIPOS>UNITY_ATOM_ATTR
41 1
charge -1
@<TRIPOS>BOND
     1    26    27    1
     2    27    28   ar
     3    28    29   ar
     4    29    33    1
     5    33    34    1
     6    34    35   ar
     7    35    36   ar
     8    36    37   ar
     9    37    40    1
    10    40    41   ar
    11    40    42   ar
    12    37    38   ar
    13    38    39   ar
    14    29    30   ar
    15    30    31   ar
    16    31    32   ar
    17    32    25    1
    18    25     1    1
    19     1     2    1
    20     2     3    1
    21     3     4    1
    22     4     7    1
    23     7     8   am
    24     8     9    2
    25     8    10   am
    26    10    13    1
    27    13    14    1
    28    14    15    1
    29    15    16    1
    30    16    17    1
    31    17    18    1
    32    10    11    1
    33    11    12    1
    34    12    19    1
    35    19    20   ar
    36    20    21   ar
    37    21    22   ar
    38    22    23   ar
    39    23    24   ar
    40     4     5    1
    41     5     6    1
    42    32    27   ar
    43     6     1    1
    44    39    34   ar
    45    12     7    1
    46    24    19   ar
    47    18    13    1
@<TRIPOS>MOLECULE
*****
 42 47 0 0 0
SMALL
GASTEIGER

@<TRIPOS>ATOM
      1 N          60.1997   89.2339    8.0538 N.3     1  UNL1       -0.2688
      2 C          61.3580   88.2872    8.1647 C.3     1  UNL1        0.0741
      3 C          62.2013   88.2760    9.4052 C.3     1  UNL1        0.0372
      4 C          61.8863   89.2114   10.5347 C.3     1  UNL1        0.0799
      5 C          60.7281   90.1581   10.4238 C.3     1  UNL1        0.0372
      6 C          59.8848   90.1693    9.1834 C.3     1  UNL1        0.0741
      7 N          62.7296   89.2002   11.7752 N.am    1  UNL1       -0.2618
      8 C          63.2505   90.4068   12.4982 C.2     1  UNL1        0.3074
      9 O          63.0195   91.8366   12.1077 O.2     1  UNL1       -0.2523
     10 N          64.0429   89.9327   13.6803 N.am    1  UNL1       -0.2635
     11 C          64.0118   88.4331   13.6878 C.3     1  UNL1        0.1192
     12 C          63.2002   87.9804   12.5104 C.3     1  UNL1        0.1191
     13 C          64.7434   90.8051   14.6794 C.3     1  UNL1        0.0819
     14 C          66.1558   91.2452   14.4307 C.3     1  UNL1        0.0520
     15 C          66.8563   92.1176   15.4298 C.3     1  UNL1        0.1439
     16 O          66.1445   92.5499   16.6774 O.3     1  UNL1       -0.3537
     17 C          64.7322   92.1099   16.9260 C.3     1  UNL1        0.1439
     18 C          64.0317   91.2375   15.9269 C.3     1  UNL1        0.0520
     19 C          62.9100   86.5576   12.1343 C.ar    1  UNL1       -0.0026
     20 C          63.2997   85.4428   13.0594 C.ar    1  UNL1       -0.0026
     21 C          63.0095   84.0200   12.6833 C.ar    1  UNL1       -0.0003
     22 C          62.3297   83.7119   11.3821 C.ar    1  UNL1       -0.0000
     23 C          61.9401   84.8266   10.4571 C.ar    1  UNL1       -0.0003
     24 C          62.2302   86.2493   10.8332 C.ar    1  UNL1       -0.0026
     25 C          59.3564   89.2452    6.8134 C.3     1  UNL1        0.1003
     26 C          56.9207   90.5928    5.6947 C.3     1  UNL1        0.0519
     27 C          58.2872   91.0290    5.2561 C.ar    1  UNL1        0.0598
     28 N          58.4359   92.1389    4.2583 N.ar    1  UNL1       -0.2160
     29 C          59.8024   92.5751    3.8197 C.ar    1  UNL1        0.2293
     30 C          61.0203   91.9014    4.3790 C.ar    1  UNL1        0.0578
     31 C          60.8716   90.7914    5.3769 C.ar    1  UNL1        0.0031
     32 C          59.5050   90.3552    5.8155 C.ar    1  UNL1        0.0077
     33 O          59.9511   93.6852    2.8218 O.3     1  UNL1       -0.4361
     34 C          59.5923   93.4539    1.3838 C.ar    1  UNL1        0.1472
     35 C          59.8085   92.1049    0.7644 C.ar    1  UNL1        0.0376
     36 C          59.4497   91.8737   -0.6736 C.ar    1  UNL1        0.0043
     37 C          58.8747   92.9914   -1.4922 C.ar    1  UNL1        0.0142
     38 C          58.6586   94.3403   -0.8728 C.ar    1  UNL1        0.0043
     39 C          59.0173   94.5716    0.5651 C.ar    1  UNL1        0.0376
     40 C          58.5160   92.7602   -2.9302 C.2     1  UNL1        0.0729
     41 O          58.9241   93.7565   -3.9746 O.co2   1  UNL1       -0.5446
     42 O          57.7491   91.5325   -3.3238 O.co2   1  UNL1       -0.5446
@<TRIPOS>UNITY_ATOM_ATTR
41 1
charge -1
@<TRIPOS>BOND
     1    26    27    1
     2    27    28   ar
     3    28    29   ar
     4    29    33    1
     5    33    34    1
     6    34    35   ar
     7    35    36   ar
     8    36    37   ar
     9    37    40    1
    10    40    41   ar
    11    40    42   ar
    12    37    38   ar
    13    38    39   ar
    14    29    30   ar
    15    30    31   ar
    16    31    32   ar
    17    32    25    1
    18    25     1    1
    19     1     2    1
    20     2     3    1
    21     3     4    1
    22     4     7    1
    23     7     8   am
    24     8     9    2
    25     8    10   am
    26    10    13    1
    27    13    14    1
    28    14    15    1
    29    15    16    1
    30    16    17    1
    31    17    18    1
    32    10    11    1
    33    11    12    1
    34    12    19    1
    35    19    20   ar
    36    20    21   ar
    37    21    22   ar
    38    22    23   ar
    39    23    24   ar
    40     4     5    1
    41     5     6    1
    42    32    27   ar
    43     6     1    1
    44    39    34   ar
    45    12     7    1
    46    24    19   ar
    47    18    13    1
@<TRIPOS>MOLECULE
*****
 42 47 0 0 0
SMALL
GASTEIGER

@<TRIPOS>ATOM
      1 N          63.8159   88.2693   15.4019 N.3     1  UNL1       -0.2688
      2 C          63.8751   87.8066   13.9762 C.3     1  UNL1        0.0741
      3 C          64.0375   88.8059   12.8695 C.3     1  UNL1        0.0372
      4 C          64.1408   90.2681   13.1884 C.3     1  UNL1        0.0799
      5 C          64.0817   90.7307   14.6140 C.3     1  UNL1        0.0372
      6 C          63.9192   89.7314   15.7208 C.3     1  UNL1        0.0741
      7 N          64.3033   91.2674   12.0817 N.am    1  UNL1       -0.2618
      8 C          65.3486   92.3408   12.0094 C.2     1  UNL1        0.3074
      9 O          66.4149   92.6034   13.0312 O.2     1  UNL1       -0.2523
     10 N          65.1403   93.1057   10.7360 N.am    1  UNL1       -0.2635
     11 C          63.9664   92.5050   10.0212 C.3     1  UNL1        0.1192
     12 C          63.4491   91.3689   10.8529 C.3     1  UNL1        0.1191
     13 C          65.9618   94.2673   10.2608 C.3     1  UNL1        0.0819
     14 C          66.9107   94.0946    9.1119 C.3     1  UNL1        0.0520
     15 C          67.7322   95.2562    8.6367 C.3     1  UNL1        0.1439
     16 O          67.6048   96.5904    9.3104 O.3     1  UNL1       -0.3537
     17 C          66.6560   96.7629   10.4592 C.3     1  UNL1        0.1439
     18 C          65.8345   95.6014   10.9344 C.3     1  UNL1        0.0520
     19 C          62.2824   90.4887   10.5151 C.ar    1  UNL1       -0.0026
     20 C          62.4922   89.2423    9.7072 C.ar    1  UNL1       -0.0026
     21 C          61.3255   88.3622    9.3694 C.ar    1  UNL1       -0.0003
     22 C          59.9489   88.7284    9.8393 C.ar    1  UNL1       -0.0000
     23 C          59.7391   89.9747   10.6471 C.ar    1  UNL1       -0.0003
     24 C          60.9057   90.8548   10.9850 C.ar    1  UNL1       -0.0026
     25 C          63.6534   87.2700   16.5087 C.3     1  UNL1        0.1003
     26 C          60.8690   86.1669   16.6838 C.3     1  UNL1        0.0519
     27 C          62.0040   85.2764   16.2729 C.ar    1  UNL1        0.0598
     28 N          61.7469   83.8345   15.9495 N.ar    1  UNL1       -0.2160
     29 C          62.8819   82.9441   15.5385 C.ar    1  UNL1        0.2293
     30 C          64.2740   83.4955   15.4509 C.ar    1  UNL1        0.0578
     31 C          64.5312   84.9375   15.7743 C.ar    1  UNL1        0.0031
     32 C          63.3962   85.8279   16.1853 C.ar    1  UNL1        0.0077
     33 O          62.6246   81.5020   15.2151 O.3     1  UNL1       -0.4361
     34 C          62.6760   81.0320   13.7916 C.ar    1  UNL1        0.1472
     35 C          62.3504   79.6056   13.4606 C.ar    1  UNL1        0.0376
     36 C          62.4017   79.1355   12.0371 C.ar    1  UNL1        0.0043
     37 C          62.7786   80.0918   10.9446 C.ar    1  UNL1        0.0142
     38 C          63.1042   81.5181   11.2756 C.ar    1  UNL1        0.0043
     39 C          63.0529   81.9882   12.6992 C.ar    1  UNL1        0.0376
     40 C          62.8300   79.6217    9.5211 C.2     1  UNL1        0.0729
     41 O          64.0081   78.8311    9.0344 O.co2   1  UNL1       -0.5446
     42 O          61.7031   79.9423    8.5843 O.co2   1  UNL1       -0.5446
@<TRIPOS>UNITY_ATOM_ATTR
41 1
charge -1
@<TRIPOS>BOND
     1    26    27    1
     2    27    28   ar
     3    28    29   ar
     4    29    33    1
     5    33    34    1
     6    34    35   ar
     7    35    36   ar
     8    36    37   ar
     9    37    40    1
    10    40    41   ar
    11    40    42   ar
    12    37    38   ar
    13    38    39   ar
    14    29    30   ar
    15    30    31   ar
    16    31    32   ar
    17    32    25    1
    18    25     1    1
    19     1     2    1
    20     2     3    1
    21     3     4    1
    22     4     7    1
    23     7     8   am
    24     8     9    2
    25     8    10   am
    26    10    13    1
    27    13    14    1
    28    14    15    1
    29    15    16    1
    30    16    17    1
    31    17    18    1
    32    10    11    1
    33    11    12    1
    34    12    19    1
    35    19    20   ar
    36    20    21   ar
    37    21    22   ar
    38    22    23   ar
    39    23    24   ar
    40     4     5    1
    41     5     6    1
    42    32    27   ar
    43     6     1    1
    44    39    34   ar
    45    12     7    1
    46    24    19   ar
    47    18    13    1
