@<TRIPOS>MOLECULE
*****
 37 41 0 0 0
SMALL
GASTEIGER

@<TRIPOS>ATOM
      1 N          62.8204   90.8143   11.9172 N.ar    1  UNL1       -0.2229
      2 C          63.7886   91.6594   11.1438 C.ar    1  UNL1        0.2756
      3 O          63.5000   92.0136    9.7150 O.2     1  UNL1       -0.2655
      4 C          65.0454   92.1504   11.7991 C.ar    1  UNL1        0.0606
      5 C          65.3340   91.7962   13.2278 C.ar    1  UNL1        0.0422
      6 C          64.3657   90.9510   14.0012 C.ar    1  UNL1        0.1860
      7 N          64.3809   90.4442   15.4129 N.ar    1  UNL1       -0.1459
      8 N          63.1335   89.6400   15.6301 N.ar    1  UNL1       -0.1973
      9 C          62.7410   88.9475   16.9015 C.3     1  UNL1        0.1588
     10 C          62.3473   89.6498   14.3526 C.ar    1  UNL1        0.3670
     11 O          61.0308   88.9688   14.1223 O.2     1  UNL1       -0.2429
     12 N          63.1089   90.4601   13.3459 N.ar    1  UNL1       -0.1765
     13 C          66.5908   92.2872   13.8831 C.ar    1  UNL1        0.0032
     14 C          66.5267   93.3945   14.8930 C.ar    1  UNL1        0.0010
     15 C          67.7835   93.8856   15.5483 C.ar    1  UNL1        0.0114
     16 C          69.1042   93.2693   15.1937 C.ar    1  UNL1        0.0577
     17 CL         70.3610   93.7604   15.8490 Cl      1  UNL1       -0.0822
     18 C          69.1683   92.1620   14.1838 C.ar    1  UNL1        0.0114
     19 C          67.9115   91.6709   13.5285 C.ar    1  UNL1        0.0010
     20 C          66.0137   92.9956   11.0256 C.ar    1  UNL1        0.0078
     21 C          67.0804   92.3451   10.1956 C.ar    1  UNL1        0.0208
     22 C          68.0486   93.1902    9.4222 C.ar    1  UNL1        0.0989
     23 N          67.9502   94.6859    9.4788 N.ar    1  UNL1       -0.2423
     24 C          66.8834   95.3364   10.3088 C.ar    1  UNL1        0.0989
     25 C          65.9152   94.4913   11.0822 C.ar    1  UNL1        0.0208
     26 C          61.5636   90.3233   11.2618 C.3     1  UNL1        0.1568
     27 C          59.7247   90.1101    8.9010 C.3     1  UNL1        0.0518
     28 C          60.6799   88.9958    9.2108 C.ar    1  UNL1        0.0572
     29 N          60.7157   87.7749    8.3401 N.ar    1  UNL1       -0.2460
     30 C          61.6710   86.6606    8.6499 C.ar    1  UNL1        0.1522
     31 C          62.5903   86.7672    9.8302 C.ar    1  UNL1        0.0228
     32 C          62.5546   87.9881   10.7009 C.ar    1  UNL1        0.0003
     33 C          61.5994   89.1024   10.3912 C.ar    1  UNL1        0.0158
     34 C          61.7067   85.4396    7.7791 C.3     1  UNL1        0.4348
     35 F          61.7425   84.2188    6.9085 F       1  UNL1       -0.1644
     36 F          60.2426   85.5995    7.4950 F       1  UNL1       -0.1644
     37 F          63.1709   85.2798    8.0633 F       1  UNL1       -0.1644
@<TRIPOS>BOND
     1    27    28    1
     2    28    29   ar
     3    29    30   ar
     4    30    34    1
     5    34    35    1
     6    34    36    1
     7    34    37    1
     8    30    31   ar
     9    31    32   ar
    10    32    33   ar
    11    33    26    1
    12    26     1    1
    13     1     2   ar
    14     2     3    2
    15     2     4   ar
    16     4    20    1
    17    20    21   ar
    18    21    22   ar
    19    22    23   ar
    20    23    24   ar
    21    24    25   ar
    22     4     5   ar
    23     5    13    1
    24    13    14   ar
    25    14    15   ar
    26    15    16   ar
    27    16    17    1
    28    16    18   ar
    29    18    19   ar
    30     5     6   ar
    31     6     7   ar
    32     7     8   ar
    33     8     9    1
    34     8    10   ar
    35    10    11    2
    36    10    12   ar
    37    33    28   ar
    38    12     1   ar
    39    25    20   ar
    40    19    13   ar
    41    12     6   ar
@<TRIPOS>MOLECULE
*****
 37 41 0 0 0
SMALL
GASTEIGER

@<TRIPOS>ATOM
      1 N          62.7967   88.3633   12.4404 N.ar    1  UNL1       -0.2229
      2 C          62.3816   87.9136   11.0709 C.ar    1  UNL1        0.2756
      3 O          61.8958   88.9170   10.0672 O.2     1  UNL1       -0.2655
      4 C          62.4523   86.4607   10.7051 C.ar    1  UNL1        0.0606
      5 C          62.9381   85.4573   11.7087 C.ar    1  UNL1        0.0422
      6 C          63.3532   85.9069   13.0782 C.ar    1  UNL1        0.1860
      7 N          63.8697   85.1539   14.2682 N.ar    1  UNL1       -0.1459
      8 N          64.1182   86.1415   15.3695 N.ar    1  UNL1       -0.1973
      9 C          64.6383   85.8219   16.7397 C.3     1  UNL1        0.1588
     10 C          63.7553   87.5049   14.8601 C.ar    1  UNL1        0.3670
     11 O          63.8488   88.7880   15.6315 O.2     1  UNL1       -0.2429
     12 N          63.2825   87.3599   13.4440 N.ar    1  UNL1       -0.1765
     13 C          63.0088   84.0043   11.3428 C.ar    1  UNL1        0.0032
     14 C          62.1586   83.0054   12.0705 C.ar    1  UNL1        0.0010
     15 C          62.2293   81.5524   11.7046 C.ar    1  UNL1        0.0114
     16 C          63.1501   81.0984   10.6111 C.ar    1  UNL1        0.0577
     17 CL         63.2207   79.6454   10.2453 Cl      1  UNL1       -0.0822
     18 C          64.0003   82.0972    9.8834 C.ar    1  UNL1        0.0114
     19 C          63.9297   83.5502   10.2493 C.ar    1  UNL1        0.0010
     20 C          62.0372   86.0110    9.3355 C.ar    1  UNL1        0.0078
     21 C          63.0521   85.4261    8.3985 C.ar    1  UNL1        0.0208
     22 C          62.6370   84.9765    7.0290 C.ar    1  UNL1        0.0989
     23 N          61.2071   85.1117    6.5965 N.ar    1  UNL1       -0.2423
     24 C          60.1922   85.6965    7.5335 C.ar    1  UNL1        0.0989
     25 C          60.6073   86.1462    8.9030 C.ar    1  UNL1        0.0208
     26 C          62.7259   89.8162   12.8062 C.3     1  UNL1        0.1568
     27 C          64.9512   90.8950   14.5047 C.3     1  UNL1        0.0518
     28 C          64.8245   91.3245   13.0731 C.ar    1  UNL1        0.0572
     29 N          65.8104   92.2934   12.4907 N.ar    1  UNL1       -0.2460
     30 C          65.6837   92.7229   11.0590 C.ar    1  UNL1        0.1522
     31 C          64.5711   92.1836   10.2099 C.ar    1  UNL1        0.0228
     32 C          63.5851   91.2147   10.7922 C.ar    1  UNL1        0.0003
     33 C          63.7119   90.7851   12.2238 C.ar    1  UNL1        0.0158
     34 C          66.6697   93.6919   10.4767 C.3     1  UNL1        0.4348
     35 F          67.6556   94.6607    9.8944 F       1  UNL1       -0.1644
     36 F          65.7681   94.8320   10.8472 F       1  UNL1       -0.1644
     37 F          67.5713   92.5517   10.1061 F       1  UNL1       -0.1644
@<TRIPOS>BOND
     1    27    28    1
     2    28    29   ar
     3    29    30   ar
     4    30    34    1
     5    34    35    1
     6    34    36    1
     7    34    37    1
     8    30    31   ar
     9    31    32   ar
    10    32    33   ar
    11    33    26    1
    12    26     1    1
    13     1     2   ar
    14     2     3    2
    15     2     4   ar
    16     4    20    1
    17    20    21   ar
    18    21    22   ar
    19    22    23   ar
    20    23    24   ar
    21    24    25   ar
    22     4     5   ar
    23     5    13    1
    24    13    14   ar
    25    14    15   ar
    26    15    16   ar
    27    16    17    1
    28    16    18   ar
    29    18    19   ar
    30     5     6   ar
    31     6     7   ar
    32     7     8   ar
    33     8     9    1
    34     8    10   ar
    35    10    11    2
    36    10    12   ar
    37    33    28   ar
    38    12     1   ar
    39    25    20   ar
    40    19    13   ar
    41    12     6   ar
@<TRIPOS>MOLECULE
*****
 37 41 0 0 0
SMALL
GASTEIGER

@<TRIPOS>ATOM
      1 N          63.7127   89.9221   13.8945 N.ar    1  UNL1       -0.2229
      2 C          64.9704   90.5764   14.3843 C.ar    1  UNL1        0.2756
      3 O          65.5026   90.2514   15.7486 O.2     1  UNL1       -0.2655
      4 C          65.6959   91.5557   13.5099 C.ar    1  UNL1        0.0606
      5 C          65.1638   91.8807   12.1456 C.ar    1  UNL1        0.0422
      6 C          63.9061   91.2263   11.6558 C.ar    1  UNL1        0.1860
      7 N          63.1475   91.3481   10.3675 N.ar    1  UNL1       -0.1459
      8 N          61.9531   90.4440   10.4457 N.ar    1  UNL1       -0.1973
      9 C          60.9197   90.2539    9.3752 C.3     1  UNL1        0.1588
     10 C          61.9735   89.7636   11.7823 C.ar    1  UNL1        0.3670
     11 O          60.9641   88.7734   12.2831 O.2     1  UNL1       -0.2429
     12 N          63.1805   90.2470   12.5302 N.ar    1  UNL1       -0.1765
     13 C          65.8894   92.8600   11.2712 C.ar    1  UNL1        0.0032
     14 C          66.8603   92.3678   10.2392 C.ar    1  UNL1        0.0010
     15 C          67.5859   93.3470    9.3648 C.ar    1  UNL1        0.0114
     16 C          67.3407   94.8184    9.5225 C.ar    1  UNL1        0.0577
     17 CL         68.0663   95.7976    8.6481 Cl      1  UNL1       -0.0822
     18 C          66.3698   95.3105   10.5546 C.ar    1  UNL1        0.0114
     19 C          65.6442   94.3313   11.4290 C.ar    1  UNL1        0.0010
     20 C          66.9537   92.2100   13.9998 C.ar    1  UNL1        0.0078
     21 C          66.8766   93.3491   14.9727 C.ar    1  UNL1        0.0208
     22 C          68.1344   94.0035   15.4626 C.ar    1  UNL1        0.0989
     23 N          69.4691   93.5187   14.9795 N.ar    1  UNL1       -0.2423
     24 C          69.5462   92.3796   14.0066 C.ar    1  UNL1        0.0989
     25 C          68.2885   91.7253   13.5168 C.ar    1  UNL1        0.0208
     26 C          62.9871   88.9428   14.7689 C.3     1  UNL1        0.1568
     27 C          63.0481   87.1724   17.1901 C.3     1  UNL1        0.0518
     28 C          63.2685   86.5867   15.8269 C.ar    1  UNL1        0.0572
     29 N          63.5193   85.1157   15.6743 N.ar    1  UNL1       -0.2460
     30 C          63.7397   84.5299   14.3110 C.ar    1  UNL1        0.1522
     31 C          63.7093   85.4151   13.1005 C.ar    1  UNL1        0.0228
     32 C          63.4584   86.8861   13.2530 C.ar    1  UNL1        0.0003
     33 C          63.2380   87.4718   14.6162 C.ar    1  UNL1        0.0158
     34 C          63.9906   83.0589   14.1584 C.3     1  UNL1        0.4348
     35 F          64.2415   81.5880   14.0059 F       1  UNL1       -0.1644
     36 F          64.8845   83.3330   12.9855 F       1  UNL1       -0.1644
     37 F          63.0967   82.7848   15.3314 F       1  UNL1       -0.1644
@<TRIPOS>BOND
     1    27    28    1
     2    28    29   ar
     3    29    30   ar
     4    30    34    1
     5    34    35    1
     6    34    36    1
     7    34    37    1
     8    30    31   ar
     9    31    32   ar
    10    32    33   ar
    11    33    26    1
    12    26     1    1
    13     1     2   ar
    14     2     3    2
    15     2     4   ar
    16     4    20    1
    17    20    21   ar
    18    21    22   ar
    19    22    23   ar
    20    23    24   ar
    21    24    25   ar
    22     4     5   ar
    23     5    13    1
    24    13    14   ar
    25    14    15   ar
    26    15    16   ar
    27    16    17    1
    28    16    18   ar
    29    18    19   ar
    30     5     6   ar
    31     6     7   ar
    32     7     8   ar
    33     8     9    1
    34     8    10   ar
    35    10    11    2
    36    10    12   ar
    37    33    28   ar
    38    12     1   ar
    39    25    20   ar
    40    19    13   ar
    41    12     6   ar
@<TRIPOS>MOLECULE
*****
 37 41 0 0 0
SMALL
GASTEIGER

@<TRIPOS>ATOM
      1 N          62.7905   88.3927   12.3188 N.ar    1  UNL1       -0.2229
      2 C          62.3494   87.9138   10.9675 C.ar    1  UNL1        0.2756
      3 O          61.8299   88.8935    9.9573 O.2     1  UNL1       -0.2655
      4 C          62.4277   86.4553   10.6264 C.ar    1  UNL1        0.0606
      5 C          62.9472   85.4755   11.6366 C.ar    1  UNL1        0.0422
      6 C          63.3883   85.9545   12.9878 C.ar    1  UNL1        0.1860
      7 N          63.9399   85.2288   14.1791 N.ar    1  UNL1       -0.1459
      8 N          64.2025   86.2390   15.2564 N.ar    1  UNL1       -0.1973
      9 C          64.7571   85.9499   16.6198 C.3     1  UNL1        0.1588
     10 C          63.8132   87.5889   14.7310 C.ar    1  UNL1        0.3670
     11 O          63.9100   88.8868   15.4768 O.2     1  UNL1       -0.2429
     12 N          63.3099   87.4131   13.3289 N.ar    1  UNL1       -0.1765
     13 C          63.0255   84.0169   11.2954 C.ar    1  UNL1        0.0032
     14 C          63.9544   83.5483   10.2148 C.ar    1  UNL1        0.0010
     15 C          64.0328   82.0898    9.8736 C.ar    1  UNL1        0.0114
     16 C          63.1823   81.0999   10.6129 C.ar    1  UNL1        0.0577
     17 CL         63.2606   79.6413   10.2716 Cl      1  UNL1       -0.0822
     18 C          62.2534   81.5685   11.6934 C.ar    1  UNL1        0.0114
     19 C          62.1750   83.0270   12.0347 C.ar    1  UNL1        0.0010
     20 C          61.9866   85.9763    9.2750 C.ar    1  UNL1        0.0078
     21 C          60.5493   86.1060    8.8657 C.ar    1  UNL1        0.0208
     22 C          60.1082   85.6270    7.5144 C.ar    1  UNL1        0.0989
     23 N          61.1043   85.0184    6.5724 N.ar    1  UNL1       -0.2423
     24 C          62.5415   84.8886    6.9818 C.ar    1  UNL1        0.0989
     25 C          62.9827   85.3676    8.3331 C.ar    1  UNL1        0.0208
     26 C          62.7121   89.8513   12.6599 C.3     1  UNL1        0.1568
     27 C          62.4522   91.1344    9.9605 C.3     1  UNL1        0.0518
     28 C          63.6424   91.4352   10.8225 C.ar    1  UNL1        0.0572
     29 N          64.7027   92.3775   10.3348 N.ar    1  UNL1       -0.2460
     30 C          65.8929   92.6783   11.1968 C.ar    1  UNL1        0.1522
     31 C          66.0229   92.0368   12.5464 C.ar    1  UNL1        0.0228
     32 C          64.9626   91.0944   13.0341 C.ar    1  UNL1        0.0003
     33 C          63.7724   90.7937   12.1722 C.ar    1  UNL1        0.0158
     34 C          66.9532   93.6206   10.7090 C.3     1  UNL1        0.4348
     35 F          68.0134   94.5629   10.2213 F       1  UNL1       -0.1644
     36 F          66.5436   94.6201   11.7498 F       1  UNL1       -0.1644
     37 F          67.3628   92.6211    9.6682 F       1  UNL1       -0.1644
@<TRIPOS>BOND
     1    27    28    1
     2    28    29   ar
     3    29    30   ar
     4    30    34    1
     5    34    35    1
     6    34    36    1
     7    34    37    1
     8    30    31   ar
     9    31    32   ar
    10    32    33   ar
    11    33    26    1
    12    26     1    1
    13     1     2   ar
    14     2     3    2
    15     2     4   ar
    16     4    20    1
    17    20    21   ar
    18    21    22   ar
    19    22    23   ar
    20    23    24   ar
    21    24    25   ar
    22     4     5   ar
    23     5    13    1
    24    13    14   ar
    25    14    15   ar
    26    15    16   ar
    27    16    17    1
    28    16    18   ar
    29    18    19   ar
    30     5     6   ar
    31     6     7   ar
    32     7     8   ar
    33     8     9    1
    34     8    10   ar
    35    10    11    2
    36    10    12   ar
    37    33    28   ar
    38    12     1   ar
    39    25    20   ar
    40    19    13   ar
    41    12     6   ar
@<TRIPOS>MOLECULE
*****
 37 41 0 0 0
SMALL
GASTEIGER

@<TRIPOS>ATOM
      1 N          59.6803   93.2564   -2.4092 N.ar    1  UNL1       -0.2229
      2 C          59.7609   92.7909   -0.9856 C.ar    1  UNL1        0.2756
      3 O          58.8241   91.7295   -0.4894 O.2     1  UNL1       -0.2655
      4 C          60.7780   93.3867   -0.0581 C.ar    1  UNL1        0.0606
      5 C          61.7147   94.4481   -0.5543 C.ar    1  UNL1        0.0422
      6 C          61.6342   94.9136   -1.9779 C.ar    1  UNL1        0.1860
      7 N          62.4186   95.9361   -2.7454 N.ar    1  UNL1       -0.1459
      8 N          61.8862   95.9722   -4.1473 N.ar    1  UNL1       -0.1973
      9 C          62.3804   96.8538   -5.2557 C.3     1  UNL1        0.1588
     10 C          60.7727   94.9720   -4.2462 C.ar    1  UNL1        0.3670
     11 O          59.9580   94.6778   -5.4708 O.2     1  UNL1       -0.2429
     12 N          60.6169   94.3177   -2.9054 N.ar    1  UNL1       -0.1765
     13 C          62.7320   95.0439    0.3733 C.ar    1  UNL1        0.0032
     14 C          62.3813   96.2468    1.1980 C.ar    1  UNL1        0.0010
     15 C          63.3984   96.8426    2.1256 C.ar    1  UNL1        0.0114
     16 C          64.7662   96.2356    2.2284 C.ar    1  UNL1        0.0577
     17 CL         65.7833   96.8315    3.1560 Cl      1  UNL1       -0.0822
     18 C          65.1169   95.0328    1.4037 C.ar    1  UNL1        0.0114
     19 C          64.0997   94.4369    0.4761 C.ar    1  UNL1        0.0010
     20 C          60.8586   92.9212    1.3656 C.ar    1  UNL1        0.0078
     21 C          62.0715   92.1802    1.8449 C.ar    1  UNL1        0.0208
     22 C          62.1521   91.7147    3.2685 C.ar    1  UNL1        0.0989
     23 N          61.0197   91.9901    4.2129 N.ar    1  UNL1       -0.2423
     24 C          59.8068   92.7311    3.7336 C.ar    1  UNL1        0.0989
     25 C          59.7262   93.1966    2.3100 C.ar    1  UNL1        0.0208
     26 C          58.6630   92.6605   -3.3367 C.3     1  UNL1        0.1568
     27 C          57.2688   92.0360   -5.9186 C.3     1  UNL1        0.0518
     28 C          56.7730   93.1537   -5.0497 C.ar    1  UNL1        0.0572
     29 N          55.5800   93.9591   -5.4718 N.ar    1  UNL1       -0.2460
     30 C          55.0842   95.0768   -4.6029 C.ar    1  UNL1        0.1522
     31 C          55.7813   95.3891   -3.3120 C.ar    1  UNL1        0.0228
     32 C          56.9743   94.5837   -2.8899 C.ar    1  UNL1        0.0003
     33 C          57.4701   93.4660   -3.7588 C.ar    1  UNL1        0.0158
     34 C          53.8912   95.8823   -5.0250 C.3     1  UNL1        0.4348
     35 F          52.6983   96.6877   -5.4471 F       1  UNL1       -0.1644
     36 F          54.0563   95.3893   -6.4320 F       1  UNL1       -0.1644
     37 F          53.7261   96.3752   -3.6179 F       1  UNL1       -0.1644
@<TRIPOS>BOND
     1    27    28    1
     2    28    29   ar
     3    29    30   ar
     4    30    34    1
     5    34    35    1
     6    34    36    1
     7    34    37    1
     8    30    31   ar
     9    31    32   ar
    10    32    33   ar
    11    33    26    1
    12    26     1    1
    13     1     2   ar
    14     2     3    2
    15     2     4   ar
    16     4    20    1
    17    20    21   ar
    18    21    22   ar
    19    22    23   ar
    20    23    24   ar
    21    24    25   ar
    22     4     5   ar
    23     5    13    1
    24    13    14   ar
    25    14    15   ar
    26    15    16   ar
    27    16    17    1
    28    16    18   ar
    29    18    19   ar
    30     5     6   ar
    31     6     7   ar
    32     7     8   ar
    33     8     9    1
    34     8    10   ar
    35    10    11    2
    36    10    12   ar
    37    33    28   ar
    38    12     1   ar
    39    25    20   ar
    40    19    13   ar
    41    12     6   ar
@<TRIPOS>MOLECULE
*****
 37 41 0 0 0
SMALL
GASTEIGER

@<TRIPOS>ATOM
      1 N          62.2976   88.4520   12.0704 N.ar    1  UNL1       -0.2229
      2 C          63.0243   87.5873   13.0574 C.ar    1  UNL1        0.2756
      3 O          63.6012   88.1926   14.3027 O.2     1  UNL1       -0.2655
      4 C          63.1742   86.1174   12.7991 C.ar    1  UNL1        0.0606
      5 C          62.5973   85.5120   11.5537 C.ar    1  UNL1        0.0422
      6 C          61.8705   86.3767   10.5668 C.ar    1  UNL1        0.1860
      7 N          61.2010   86.0649    9.2612 N.ar    1  UNL1       -0.1459
      8 N          60.6374   87.3421    8.7127 N.ar    1  UNL1       -0.1973
      9 C          59.8847   87.4919    7.4238 C.3     1  UNL1        0.1588
     10 C          60.9586   88.4434    9.6792 C.ar    1  UNL1        0.3670
     11 O          60.5835   89.8877    9.5265 O.2     1  UNL1       -0.2429
     12 N          61.7207   87.8467   10.8251 N.ar    1  UNL1       -0.1765
     13 C          62.7471   84.0420   11.2955 C.ar    1  UNL1        0.0032
     14 C          63.6098   83.5632   10.1656 C.ar    1  UNL1        0.0010
     15 C          63.7597   82.0932    9.9073 C.ar    1  UNL1        0.0114
     16 C          63.0470   81.1021   10.7788 C.ar    1  UNL1        0.0577
     17 CL         63.1969   79.6322   10.5205 Cl      1  UNL1       -0.0822
     18 C          62.1843   81.5809   11.9087 C.ar    1  UNL1        0.0114
     19 C          62.0343   83.0509   12.1670 C.ar    1  UNL1        0.0010
     20 C          63.9009   85.2526   13.7861 C.ar    1  UNL1        0.0078
     21 C          65.3985   85.1740   13.7544 C.ar    1  UNL1        0.0208
     22 C          66.1253   84.3094   14.7413 C.ar    1  UNL1        0.0989
     23 N          65.3544   83.5233   15.7601 N.ar    1  UNL1       -0.2423
     24 C          63.8568   83.6018   15.7918 C.ar    1  UNL1        0.0989
     25 C          63.1301   84.4665   14.8048 C.ar    1  UNL1        0.0208
     26 C          62.1478   89.9219   12.3287 C.3     1  UNL1        0.1568
     27 C          64.0049   91.0215   14.4126 C.3     1  UNL1        0.0518
     28 C          64.1710   91.4180   12.9756 C.ar    1  UNL1        0.0572
     29 N          65.2656   92.3644   12.5804 N.ar    1  UNL1       -0.2460
     30 C          65.4317   92.7610   11.1433 C.ar    1  UNL1        0.1522
     31 C          64.5033   92.2112   10.1015 C.ar    1  UNL1        0.0228
     32 C          63.4085   91.2649   10.4966 C.ar    1  UNL1        0.0003
     33 C          63.2424   90.8683   11.9336 C.ar    1  UNL1        0.0158
     34 C          66.5265   93.7074   10.7482 C.3     1  UNL1        0.4348
     35 F          67.6211   94.6537   10.3531 F       1  UNL1       -0.1644
     36 F          65.7605   94.8461   11.3537 F       1  UNL1       -0.1644
     37 F          67.2924   92.5686   10.1427 F       1  UNL1       -0.1644
@<TRIPOS>BOND
     1    27    28    1
     2    28    29   ar
     3    29    30   ar
     4    30    34    1
     5    34    35    1
     6    34    36    1
     7    34    37    1
     8    30    31   ar
     9    31    32   ar
    10    32    33   ar
    11    33    26    1
    12    26     1    1
    13     1     2   ar
    14     2     3    2
    15     2     4   ar
    16     4    20    1
    17    20    21   ar
    18    21    22   ar
    19    22    23   ar
    20    23    24   ar
    21    24    25   ar
    22     4     5   ar
    23     5    13    1
    24    13    14   ar
    25    14    15   ar
    26    15    16   ar
    27    16    17    1
    28    16    18   ar
    29    18    19   ar
    30     5     6   ar
    31     6     7   ar
    32     7     8   ar
    33     8     9    1
    34     8    10   ar
    35    10    11    2
    36    10    12   ar
    37    33    28   ar
    38    12     1   ar
    39    25    20   ar
    40    19    13   ar
    41    12     6   ar
