@<TRIPOS>MOLECULE
*****
 35 38 0 0 0
SMALL
GASTEIGER

@<TRIPOS>ATOM
      1 C          62.4070   86.3945   10.9907 C.ar    1  UNL1        0.1311
      2 C          61.7915   87.4056   10.0695 C.ar    1  UNL1        0.0339
      3 C          61.8883   88.8680   10.3888 C.ar    1  UNL1        0.0027
      4 C          62.6007   89.3193   11.6293 C.ar    1  UNL1        0.0283
      5 C          63.2162   88.3081   12.5506 C.ar    1  UNL1        0.2196
      6 F          63.9286   88.7594   13.7911 F       1  UNL1       -0.1835
      7 N          63.1194   86.8457   12.2312 N.ar    1  UNL1       -0.2035
      8 N          62.3102   84.9320   10.6715 N.pl3   1  UNL1       -0.3144
      9 H          61.5622   84.5956   10.1269 H       1  UNL1        0.1485
     10 C          63.3530   83.9822   11.1819 C.3     1  UNL1        0.1166
     11 C          62.4962   83.1750   13.4980 C.ar    1  UNL1        0.0620
     12 C          62.1068   82.0597   14.4224 C.ar    1  UNL1        0.0156
     13 C          62.1847   80.6365   13.9551 C.ar    1  UNL1        0.0013
     14 C          62.6521   80.3285   12.5635 C.ar    1  UNL1       -0.0002
     15 C          63.0415   81.4438   11.6391 C.ar    1  UNL1       -0.0014
     16 C          62.9635   82.8670   12.1064 C.ar    1  UNL1        0.0120
     17 N          62.4183   84.5982   13.9653 N.pl3   1  UNL1       -0.2190
     18 H          61.9718   85.2757   13.4076 H       1  UNL1        0.1733
     19 S          63.0205   84.9894   15.2821 S.O2    1  UNL1        0.0539
     20 O          64.3941   84.7911   14.7129 O.2     1  UNL1       -0.1545
     21 O          61.6469   85.1876   15.8514 O.2     1  UNL1       -0.1545
     22 C          62.8862   86.3148   17.5127 C.3     1  UNL1        0.0292
     23 C          63.6227   85.3805   16.5990 C.3     1  UNL1        0.1724
     24 C          62.6975   90.7818   11.9486 C.3     1  UNL1        0.0582
     25 C          63.9660   91.5295   11.6625 C.ar    1  UNL1        0.0044
     26 C          64.4648   91.9334   10.3067 C.ar    1  UNL1        0.0966
     27 N          65.7655   92.6581   10.4884 N.ar    1  UNL1       -0.2273
     28 C          66.0706   92.7020   11.9564 C.ar    1  UNL1        0.1402
     29 N          67.2175   93.2871   12.7260 N.ar    1  UNL1       -0.3377
     30 C          67.2522   93.1745   14.2214 C.ar    1  UNL1        0.0691
     31 C          66.1401   92.4770   14.9470 C.ar    1  UNL1       -0.0047
     32 C          66.1748   92.3645   16.4425 C.3     1  UNL1        0.0326
     33 C          64.9932   91.8920   14.1774 C.ar    1  UNL1       -0.0001
     34 C          64.9585   92.0045   12.6820 C.ar    1  UNL1        0.0315
     35 H          67.9474   93.7449   12.2497 H       1  UNL1        0.1674
@<TRIPOS>BOND
     1    22    23    1
     2    23    19    1
     3    19    20    2
     4    19    21    2
     5    19    17    1
     6    17    11    1
     7    11    12   ar
     8    12    13   ar
     9    13    14   ar
    10    14    15   ar
    11    15    16   ar
    12    16    10    1
    13    10     8    1
    14     8     1    1
    15     1     2   ar
    16     2     3   ar
    17     3     4   ar
    18     4    24    1
    19    24    25    1
    20    25    26   ar
    21    26    27   ar
    22    27    28   ar
    23    28    29   ar
    24    29    30   ar
    25    30    31   ar
    26    31    32    1
    27    31    33   ar
    28    33    34   ar
    29     4     5   ar
    30     5     6    1
    31     5     7   ar
    32    16    11   ar
    33     7     1   ar
    34    34    25   ar
    35    34    28    1
    36    17    18    1
    37     8     9    1
    38    29    35    1
@<TRIPOS>MOLECULE
*****
 35 38 0 0 0
SMALL
GASTEIGER

@<TRIPOS>ATOM
      1 C          61.8912   89.1186   11.5513 C.ar    1  UNL1        0.1311
      2 C          62.1818   89.7018   10.2002 C.ar    1  UNL1        0.0339
      3 C          63.1243   90.8615   10.0709 C.ar    1  UNL1        0.0027
      4 C          63.7761   91.4381   11.2926 C.ar    1  UNL1        0.0283
      5 C          63.4855   90.8550   12.6437 C.ar    1  UNL1        0.2196
      6 F          64.1373   91.4316   13.8654 F       1  UNL1       -0.1835
      7 N          62.5431   89.6953   12.7730 N.ar    1  UNL1       -0.2035
      8 N          60.9488   87.9589   11.6807 N.pl3   1  UNL1       -0.3144
      9 H          60.5238   87.7643   12.5471 H       1  UNL1        0.1485
     10 C          60.6538   87.0956   10.4899 C.3     1  UNL1        0.1166
     11 C          62.3116   85.1601   10.9952 C.ar    1  UNL1        0.0620
     12 C          63.3270   84.1626   10.5219 C.ar    1  UNL1        0.0156
     13 C          63.6999   84.1032    9.0702 C.ar    1  UNL1        0.0013
     14 C          63.0574   85.0412    8.0918 C.ar    1  UNL1       -0.0002
     15 C          62.0421   86.0387    8.5650 C.ar    1  UNL1       -0.0014
     16 C          61.6692   86.0981   10.0167 C.ar    1  UNL1        0.0120
     17 N          61.9387   85.2195   12.4469 N.pl3   1  UNL1       -0.2190
     18 H          61.0029   85.3777   12.7086 H       1  UNL1        0.1733
     19 S          62.9915   85.0380   13.4997 S.O2    1  UNL1        0.0539
     20 O          62.5036   83.6412   13.7468 O.2     1  UNL1       -0.1545
     21 O          63.4795   86.4347   13.2526 O.2     1  UNL1       -0.1545
     22 C          64.9467   85.9984   14.9157 C.3     1  UNL1        0.0292
     23 C          64.0443   84.8565   14.5526 C.3     1  UNL1        0.1724
     24 C          64.7186   92.5980   11.1632 C.3     1  UNL1        0.0582
     25 C          66.1989   92.3759   11.2601 C.ar    1  UNL1        0.0044
     26 C          67.1347   92.1561   10.1086 C.ar    1  UNL1        0.0966
     27 N          68.5174   91.9790   10.6625 N.ar    1  UNL1       -0.2273
     28 C          68.4362   92.0893   12.1562 C.ar    1  UNL1        0.1402
     29 N          69.4818   91.9981   13.2277 N.ar    1  UNL1       -0.3377
     30 C          69.0945   92.1522   14.6686 C.ar    1  UNL1        0.0691
     31 C          67.6616   92.3975   15.0380 C.ar    1  UNL1       -0.0047
     32 C          67.2743   92.5516   16.4790 C.3     1  UNL1        0.0326
     33 C          66.6159   92.4887   13.9665 C.ar    1  UNL1       -0.0001
     34 C          67.0032   92.3346   12.5256 C.ar    1  UNL1        0.0315
     35 H          70.4223   91.8371   12.9853 H       1  UNL1        0.1674
@<TRIPOS>BOND
     1    22    23    1
     2    23    19    1
     3    19    20    2
     4    19    21    2
     5    19    17    1
     6    17    11    1
     7    11    12   ar
     8    12    13   ar
     9    13    14   ar
    10    14    15   ar
    11    15    16   ar
    12    16    10    1
    13    10     8    1
    14     8     1    1
    15     1     2   ar
    16     2     3   ar
    17     3     4   ar
    18     4    24    1
    19    24    25    1
    20    25    26   ar
    21    26    27   ar
    22    27    28   ar
    23    28    29   ar
    24    29    30   ar
    25    30    31   ar
    26    31    32    1
    27    31    33   ar
    28    33    34   ar
    29     4     5   ar
    30     5     6    1
    31     5     7   ar
    32    16    11   ar
    33     7     1   ar
    34    34    25   ar
    35    34    28    1
    36    17    18    1
    37     8     9    1
    38    29    35    1
@<TRIPOS>MOLECULE
*****
 35 38 0 0 0
SMALL
GASTEIGER

@<TRIPOS>ATOM
      1 C          63.7946   85.9675   15.3630 C.ar    1  UNL1        0.1311
      2 C          64.2819   86.7871   14.2050 C.ar    1  UNL1        0.0339
      3 C          64.3208   88.2829   14.3088 C.ar    1  UNL1        0.0027
      4 C          63.8726   88.9592   15.5704 C.ar    1  UNL1        0.0283
      5 C          63.3853   88.1396   16.7284 C.ar    1  UNL1        0.2196
      6 F          62.9371   88.8159   17.9900 F       1  UNL1       -0.1835
      7 N          63.3464   86.6437   16.6246 N.ar    1  UNL1       -0.2035
      8 N          63.7556   84.4716   15.2593 N.pl3   1  UNL1       -0.3144
      9 H          64.5548   83.9417   15.4824 H       1  UNL1        0.1485
     10 C          62.4990   83.7829   14.8158 C.3     1  UNL1        0.1166
     11 C          63.0050   82.9106   12.4214 C.ar    1  UNL1        0.0620
     12 C          63.0764   81.7792   11.4392 C.ar    1  UNL1        0.0156
     13 C          62.7133   80.3887   11.8691 C.ar    1  UNL1        0.0013
     14 C          62.2787   80.1297   13.2812 C.ar    1  UNL1       -0.0002
     15 C          62.2073   81.2611   14.2634 C.ar    1  UNL1       -0.0014
     16 C          62.5704   82.6516   13.8335 C.ar    1  UNL1        0.0120
     17 N          63.3681   84.3011   11.9915 N.pl3   1  UNL1       -0.2190
     18 H          64.2012   84.7143   12.3145 H       1  UNL1        0.1733
     19 S          62.4619   85.0618   11.0696 S.O2    1  UNL1        0.0539
     20 O          63.1946   84.5012    9.8868 O.2     1  UNL1       -0.1545
     21 O          61.7293   85.6225   12.2524 O.2     1  UNL1       -0.1545
     22 C          62.1247   86.8560    9.2210 C.3     1  UNL1        0.0292
     23 C          61.5558   85.8226   10.1476 C.3     1  UNL1        0.1724
     24 C          63.9116   90.4552   15.6741 C.3     1  UNL1        0.0582
     25 C          64.9078   91.2370   14.8701 C.ar    1  UNL1        0.0044
     26 C          66.1625   91.8696   15.3951 C.ar    1  UNL1        0.0966
     27 N          66.8543   92.5470   14.2494 N.ar    1  UNL1       -0.2273
     28 C          66.0272   92.3331   13.0165 C.ar    1  UNL1        0.1402
     29 N          66.2141   92.7709   11.5941 N.ar    1  UNL1       -0.3377
     30 C          65.1980   92.3991   10.5553 C.ar    1  UNL1        0.0691
     31 C          63.9950   91.5894   10.9389 C.ar    1  UNL1       -0.0047
     32 C          62.9788   91.2176    9.9000 C.3     1  UNL1        0.0326
     33 C          63.8081   91.1516   12.3613 C.ar    1  UNL1       -0.0001
     34 C          64.8242   91.5234   13.4001 C.ar    1  UNL1        0.0315
     35 H          67.0037   93.3023   11.3423 H       1  UNL1        0.1674
@<TRIPOS>BOND
     1    22    23    1
     2    23    19    1
     3    19    20    2
     4    19    21    2
     5    19    17    1
     6    17    11    1
     7    11    12   ar
     8    12    13   ar
     9    13    14   ar
    10    14    15   ar
    11    15    16   ar
    12    16    10    1
    13    10     8    1
    14     8     1    1
    15     1     2   ar
    16     2     3   ar
    17     3     4   ar
    18     4    24    1
    19    24    25    1
    20    25    26   ar
    21    26    27   ar
    22    27    28   ar
    23    28    29   ar
    24    29    30   ar
    25    30    31   ar
    26    31    32    1
    27    31    33   ar
    28    33    34   ar
    29     4     5   ar
    30     5     6    1
    31     5     7   ar
    32    16    11   ar
    33     7     1   ar
    34    34    25   ar
    35    34    28    1
    36    17    18    1
    37     8     9    1
    38    29    35    1
@<TRIPOS>MOLECULE
*****
 35 38 0 0 0
SMALL
GASTEIGER

@<TRIPOS>ATOM
      1 C          62.7005   90.0745   11.2836 C.ar    1  UNL1        0.1311
      2 C          63.1107   88.9616   12.2019 C.ar    1  UNL1        0.0339
      3 C          62.7682   87.5420   11.8593 C.ar    1  UNL1        0.0027
      4 C          62.0156   87.2353   10.5986 C.ar    1  UNL1        0.0283
      5 C          61.6054   88.3482    9.6803 C.ar    1  UNL1        0.2196
      6 F          60.8528   88.0415    8.4196 F       1  UNL1       -0.1835
      7 N          61.9479   89.7678   10.0229 N.ar    1  UNL1       -0.2035
      8 N          63.0430   91.4942   11.6262 N.pl3   1  UNL1       -0.3144
      9 H          62.3409   92.1070   11.9435 H       1  UNL1        0.1485
     10 C          64.4551   91.9801   11.4852 C.3     1  UNL1        0.1166
     11 C          66.0277   93.5760   12.8005 C.ar    1  UNL1        0.0620
     12 C          66.8413   93.8814   14.0231 C.ar    1  UNL1        0.0156
     13 C          66.8959   92.8963   15.1529 C.ar    1  UNL1        0.0013
     14 C          66.1369   91.6058   15.0602 C.ar    1  UNL1       -0.0002
     15 C          65.3233   91.3004   13.8376 C.ar    1  UNL1       -0.0014
     16 C          65.2687   92.2856   12.7077 C.ar    1  UNL1        0.0120
     17 N          65.9731   94.5611   11.6706 N.pl3   1  UNL1       -0.2190
     18 H          65.3964   95.3562   11.7382 H       1  UNL1        0.1733
     19 S          66.7969   94.3349   10.4378 S.O2    1  UNL1        0.0539
     20 O          66.0454   95.4266    9.7352 O.2     1  UNL1       -0.1545
     21 O          67.5485   93.2433   11.1403 O.2     1  UNL1       -0.1545
     22 C          68.3059   92.7914    8.9918 C.3     1  UNL1        0.0292
     23 C          67.6208   94.1088    9.2049 C.3     1  UNL1        0.1724
     24 C          61.6731   85.8156   10.2560 C.3     1  UNL1        0.0582
     25 C          62.6868   84.7291   10.4613 C.ar    1  UNL1        0.0044
     26 C          63.5357   84.1023    9.3952 C.ar    1  UNL1        0.0966
     27 N          64.4029   83.0645   10.0439 N.ar    1  UNL1       -0.2273
     28 C          64.0901   83.0498   11.5108 C.ar    1  UNL1        0.1402
     29 N          64.6340   82.2326   12.6449 N.ar    1  UNL1       -0.3377
     30 C          64.1172   82.4442   14.0371 C.ar    1  UNL1        0.0691
     31 C          63.0565   83.4730   14.2951 C.ar    1  UNL1       -0.0047
     32 C          62.5397   83.6845   15.6873 C.3     1  UNL1        0.0326
     33 C          62.5126   84.2902   13.1609 C.ar    1  UNL1       -0.0001
     34 C          63.0294   84.0786   11.7688 C.ar    1  UNL1        0.0315
     35 H          65.3301   81.5574   12.4756 H       1  UNL1        0.1674
@<TRIPOS>BOND
     1    22    23    1
     2    23    19    1
     3    19    20    2
     4    19    21    2
     5    19    17    1
     6    17    11    1
     7    11    12   ar
     8    12    13   ar
     9    13    14   ar
    10    14    15   ar
    11    15    16   ar
    12    16    10    1
    13    10     8    1
    14     8     1    1
    15     1     2   ar
    16     2     3   ar
    17     3     4   ar
    18     4    24    1
    19    24    25    1
    20    25    26   ar
    21    26    27   ar
    22    27    28   ar
    23    28    29   ar
    24    29    30   ar
    25    30    31   ar
    26    31    32    1
    27    31    33   ar
    28    33    34   ar
    29     4     5   ar
    30     5     6    1
    31     5     7   ar
    32    16    11   ar
    33     7     1   ar
    34    34    25   ar
    35    34    28    1
    36    17    18    1
    37     8     9    1
    38    29    35    1
@<TRIPOS>MOLECULE
*****
 35 38 0 0 0
SMALL
GASTEIGER

@<TRIPOS>ATOM
      1 C          63.4781   90.5674   12.2522 C.ar    1  UNL1        0.1311
      2 C          63.6407   89.2142   12.8785 C.ar    1  UNL1        0.0339
      3 C          62.9633   88.0210   12.2724 C.ar    1  UNL1        0.0027
      4 C          62.1234   88.1811   11.0400 C.ar    1  UNL1        0.0283
      5 C          61.9608   89.5343   10.4137 C.ar    1  UNL1        0.2196
      6 F          61.1208   89.6944    9.1813 F       1  UNL1       -0.1835
      7 N          62.6382   90.7275   11.0198 N.ar    1  UNL1       -0.2035
      8 N          64.1555   91.7606   12.8583 N.pl3   1  UNL1       -0.3144
      9 H          64.2966   92.5728   12.3200 H       1  UNL1        0.1485
     10 C          64.6180   91.7166   14.2846 C.3     1  UNL1        0.1166
     11 C          67.0647   92.1760   13.5414 C.ar    1  UNL1        0.0620
     12 C          68.4797   92.5387   13.8826 C.ar    1  UNL1        0.0156
     13 C          68.8627   92.8045   15.3083 C.ar    1  UNL1        0.0013
     14 C          67.8309   92.7077   16.3927 C.ar    1  UNL1       -0.0002
     15 C          66.4160   92.3451   16.0515 C.ar    1  UNL1       -0.0014
     16 C          66.0329   92.0792   14.6258 C.ar    1  UNL1        0.0120
     17 N          66.6817   91.9101   12.1157 N.pl3   1  UNL1       -0.2190
     18 H          66.2730   91.0493   11.8681 H       1  UNL1        0.1733
     19 S          66.9211   92.9557   11.0672 S.O2    1  UNL1        0.0539
     20 O          68.1423   92.2154   10.6080 O.2     1  UNL1       -0.1545
     21 O          65.7000   93.6959   11.5264 O.2     1  UNL1       -0.1545
     22 C          68.0324   93.6930    8.8375 C.3     1  UNL1        0.0292
     23 C          67.1606   94.0012   10.0187 C.3     1  UNL1        0.1724
     24 C          61.4459   86.9878   10.4338 C.3     1  UNL1        0.0582
     25 C          62.2626   85.8232    9.9576 C.ar    1  UNL1        0.0044
     26 C          62.7112   85.5789    8.5473 C.ar    1  UNL1        0.0966
     27 N          63.4999   84.3032    8.5262 N.ar    1  UNL1       -0.2273
     28 C          63.5389   83.7591    9.9235 C.ar    1  UNL1        0.1402
     29 N          64.1719   82.5297   10.5046 N.ar    1  UNL1       -0.3377
     30 C          64.0402   82.2397   11.9704 C.ar    1  UNL1        0.0691
     31 C          63.2755   83.1791   12.8551 C.ar    1  UNL1       -0.0047
     32 C          63.1438   82.8891   14.3209 C.3     1  UNL1        0.0326
     33 C          62.6425   84.4086   12.2740 C.ar    1  UNL1       -0.0001
     34 C          62.7742   84.6986   10.8082 C.ar    1  UNL1        0.0315
     35 H          64.6738   81.9131    9.9240 H       1  UNL1        0.1674
@<TRIPOS>BOND
     1    22    23    1
     2    23    19    1
     3    19    20    2
     4    19    21    2
     5    19    17    1
     6    17    11    1
     7    11    12   ar
     8    12    13   ar
     9    13    14   ar
    10    14    15   ar
    11    15    16   ar
    12    16    10    1
    13    10     8    1
    14     8     1    1
    15     1     2   ar
    16     2     3   ar
    17     3     4   ar
    18     4    24    1
    19    24    25    1
    20    25    26   ar
    21    26    27   ar
    22    27    28   ar
    23    28    29   ar
    24    29    30   ar
    25    30    31   ar
    26    31    32    1
    27    31    33   ar
    28    33    34   ar
    29     4     5   ar
    30     5     6    1
    31     5     7   ar
    32    16    11   ar
    33     7     1   ar
    34    34    25   ar
    35    34    28    1
    36    17    18    1
    37     8     9    1
    38    29    35    1
@<TRIPOS>MOLECULE
*****
 35 38 0 0 0
SMALL
GASTEIGER

@<TRIPOS>ATOM
      1 C          62.5828   89.9068   11.4471 C.ar    1  UNL1        0.1311
      2 C          63.1690   88.7438   12.1914 C.ar    1  UNL1        0.0339
      3 C          62.9219   87.3445   11.7109 C.ar    1  UNL1        0.0027
      4 C          62.0887   87.1082   10.4862 C.ar    1  UNL1        0.0283
      5 C          61.5025   88.2711    9.7420 C.ar    1  UNL1        0.2196
      6 F          60.6692   88.0348    8.5173 F       1  UNL1       -0.1835
      7 N          61.7496   89.6704   10.2225 N.ar    1  UNL1       -0.2035
      8 N          62.8299   91.3061   11.9276 N.pl3   1  UNL1       -0.3144
      9 H          62.1403   91.7761   12.4499 H       1  UNL1        0.1485
     10 C          64.1275   91.9893   11.6122 C.3     1  UNL1        0.1166
     11 C          65.0330   91.5227   14.0023 C.ar    1  UNL1        0.0620
     12 C          66.1839   91.4253   14.9593 C.ar    1  UNL1        0.0156
     13 C          67.5801   91.6972   14.4834 C.ar    1  UNL1        0.0013
     14 C          67.8255   92.0665   13.0504 C.ar    1  UNL1       -0.0002
     15 C          66.6746   92.1639   12.0934 C.ar    1  UNL1       -0.0014
     16 C          65.2783   91.8919   12.5693 C.ar    1  UNL1        0.0120
     17 N          63.6367   91.2507   14.4782 N.pl3   1  UNL1       -0.2190
     18 H          62.8675   91.5988   13.9719 H       1  UNL1        0.1733
     19 S          63.4123   90.4485   15.7256 S.O2    1  UNL1        0.0539
     20 O          63.5032   89.1818   14.9272 O.2     1  UNL1       -0.1545
     21 O          63.3215   91.7151   16.5239 O.2     1  UNL1       -0.1545
     22 C          63.0883   88.1514   16.8955 C.3     1  UNL1        0.0292
     23 C          63.1880   89.6462   16.9729 C.3     1  UNL1        0.1724
     24 C          61.8416   85.7088   10.0057 C.3     1  UNL1        0.0582
     25 C          62.8139   84.6174   10.3427 C.ar    1  UNL1        0.0044
     26 C          63.6932   83.8887    9.3702 C.ar    1  UNL1        0.0966
     27 N          64.5004   82.8841   10.1378 N.ar    1  UNL1       -0.2273
     28 C          64.1200   82.9920   11.5848 C.ar    1  UNL1        0.1402
     29 N          64.5881   82.2533   12.8034 N.ar    1  UNL1       -0.3377
     30 C          64.0139   82.5857   14.1486 C.ar    1  UNL1        0.0691
     31 C          62.9716   83.6570   14.2753 C.ar    1  UNL1       -0.0047
     32 C          62.3974   83.9895   15.6206 C.3     1  UNL1        0.0326
     33 C          62.5035   84.3958   13.0567 C.ar    1  UNL1       -0.0001
     34 C          63.0777   84.0633   11.7114 C.ar    1  UNL1        0.0315
     35 H          65.2722   81.5502   12.7203 H       1  UNL1        0.1674
@<TRIPOS>BOND
     1    22    23    1
     2    23    19    1
     3    19    20    2
     4    19    21    2
     5    19    17    1
     6    17    11    1
     7    11    12   ar
     8    12    13   ar
     9    13    14   ar
    10    14    15   ar
    11    15    16   ar
    12    16    10    1
    13    10     8    1
    14     8     1    1
    15     1     2   ar
    16     2     3   ar
    17     3     4   ar
    18     4    24    1
    19    24    25    1
    20    25    26   ar
    21    26    27   ar
    22    27    28   ar
    23    28    29   ar
    24    29    30   ar
    25    30    31   ar
    26    31    32    1
    27    31    33   ar
    28    33    34   ar
    29     4     5   ar
    30     5     6    1
    31     5     7   ar
    32    16    11   ar
    33     7     1   ar
    34    34    25   ar
    35    34    28    1
    36    17    18    1
    37     8     9    1
    38    29    35    1
@<TRIPOS>MOLECULE
*****
 35 38 0 0 0
SMALL
GASTEIGER

@<TRIPOS>ATOM
      1 C          64.1251   86.5512   14.5066 C.ar    1  UNL1        0.1311
      2 C          64.2942   87.8612   15.2175 C.ar    1  UNL1        0.0339
      3 C          63.8965   89.1389   14.5398 C.ar    1  UNL1        0.0027
      4 C          63.3299   89.1067   13.1513 C.ar    1  UNL1        0.0283
      5 C          63.1608   87.7967   12.4405 C.ar    1  UNL1        0.2196
      6 F          62.5942   87.7644   11.0520 F       1  UNL1       -0.1835
      7 N          63.5585   86.5190   13.1182 N.ar    1  UNL1       -0.2035
      8 N          64.5227   85.2734   15.1842 N.pl3   1  UNL1       -0.3144
      9 H          64.5622   85.2290   16.1669 H       1  UNL1        0.1485
     10 C          64.8602   84.0633   14.3646 C.3     1  UNL1        0.1166
     11 C          63.6507   82.6064   12.5857 C.ar    1  UNL1        0.0620
     12 C          62.5778   81.6227   12.2237 C.ar    1  UNL1        0.0156
     13 C          61.6413   81.1123   13.2784 C.ar    1  UNL1        0.0013
     14 C          61.7778   81.5856   14.6953 C.ar    1  UNL1       -0.0002
     15 C          62.8508   82.5692   15.0573 C.ar    1  UNL1       -0.0014
     16 C          63.7873   83.0796   14.0025 C.ar    1  UNL1        0.0120
     17 N          64.5872   83.1168   11.5309 N.pl3   1  UNL1       -0.2190
     18 H          65.5537   83.1642   11.7120 H       1  UNL1        0.1733
     19 S          64.0511   83.5549   10.2003 S.O2    1  UNL1        0.0539
     20 O          64.8598   82.4881    9.5233 O.2     1  UNL1       -0.1545
     21 O          63.2425   84.6216   10.8773 O.2     1  UNL1       -0.1545
     22 C          62.9822   85.3845    8.6970 C.3     1  UNL1        0.0292
     23 C          63.5151   83.9929    8.8697 C.3     1  UNL1        0.1724
     24 C          62.9322   90.3845   12.4737 C.3     1  UNL1        0.0582
     25 C          63.9858   91.3380   11.9931 C.ar    1  UNL1        0.0044
     26 C          64.1734   91.8057   10.5803 C.ar    1  UNL1        0.0966
     27 N          65.3403   92.7478   10.5551 N.ar    1  UNL1       -0.2273
     28 C          65.8739   92.8624   11.9523 C.ar    1  UNL1        0.1402
     29 N          67.0139   93.6476   12.5300 N.ar    1  UNL1       -0.3377
     30 C          67.3168   93.5614   13.9966 C.ar    1  UNL1        0.0691
     31 C          66.4797   92.6900   14.8854 C.ar    1  UNL1       -0.0047
     32 C          66.7826   92.6038   16.3520 C.3     1  UNL1        0.0326
     33 C          65.3397   91.9048   14.3076 C.ar    1  UNL1       -0.0001
     34 C          65.0368   91.9910   12.8411 C.ar    1  UNL1        0.0315
     35 H          67.5634   94.2195   11.9467 H       1  UNL1        0.1674
@<TRIPOS>BOND
     1    22    23    1
     2    23    19    1
     3    19    20    2
     4    19    21    2
     5    19    17    1
     6    17    11    1
     7    11    12   ar
     8    12    13   ar
     9    13    14   ar
    10    14    15   ar
    11    15    16   ar
    12    16    10    1
    13    10     8    1
    14     8     1    1
    15     1     2   ar
    16     2     3   ar
    17     3     4   ar
    18     4    24    1
    19    24    25    1
    20    25    26   ar
    21    26    27   ar
    22    27    28   ar
    23    28    29   ar
    24    29    30   ar
    25    30    31   ar
    26    31    32    1
    27    31    33   ar
    28    33    34   ar
    29     4     5   ar
    30     5     6    1
    31     5     7   ar
    32    16    11   ar
    33     7     1   ar
    34    34    25   ar
    35    34    28    1
    36    17    18    1
    37     8     9    1
    38    29    35    1
@<TRIPOS>MOLECULE
*****
 35 38 0 0 0
SMALL
GASTEIGER

@<TRIPOS>ATOM
      1 C          62.9061   89.3478   12.4109 C.ar    1  UNL1        0.1311
      2 C          63.6675   88.3869   13.2753 C.ar    1  UNL1        0.0339
      3 C          63.6039   86.9146   12.9959 C.ar    1  UNL1        0.0027
      4 C          62.7792   86.4030   11.8522 C.ar    1  UNL1        0.0283
      5 C          62.0178   87.3639   10.9878 C.ar    1  UNL1        0.2196
      6 F          61.1930   86.8524    9.8441 F       1  UNL1       -0.1835
      7 N          62.0813   88.8363   11.2672 N.ar    1  UNL1       -0.2035
      8 N          62.9696   90.8202   12.6902 N.pl3   1  UNL1       -0.3144
      9 H          62.2562   91.2533   13.2126 H       1  UNL1        0.1485
     10 C          64.1198   91.6327   12.1738 C.3     1  UNL1        0.1166
     11 C          65.9488   93.3845   12.7538 C.ar    1  UNL1        0.0620
     12 C          66.9710   93.9280   13.7076 C.ar    1  UNL1        0.0156
     13 C          67.1864   93.2635   15.0350 C.ar    1  UNL1        0.0013
     14 C          66.3797   92.0554   15.4086 C.ar    1  UNL1       -0.0002
     15 C          65.3575   91.5118   14.4549 C.ar    1  UNL1       -0.0014
     16 C          65.1420   92.1764   13.1275 C.ar    1  UNL1        0.0120
     17 N          65.7333   94.0490   11.4264 N.pl3   1  UNL1       -0.2190
     18 H          64.8714   94.4805   11.2261 H       1  UNL1        0.1733
     19 S          66.8310   94.0562   10.4043 S.O2    1  UNL1        0.0539
     20 O          66.8048   95.5559   10.3866 O.2     1  UNL1       -0.1545
     21 O          66.8573   92.5565   10.4219 O.2     1  UNL1       -0.1545
     22 C          68.4472   92.7689    8.8290 C.3     1  UNL1        0.0292
     23 C          67.9287   94.0634    9.3821 C.3     1  UNL1        0.1724
     24 C          62.7157   84.9306   11.5729 C.3     1  UNL1        0.0582
     25 C          62.6299   83.9547   12.7088 C.ar    1  UNL1        0.0044
     26 C          62.5032   84.3026   14.1624 C.ar    1  UNL1        0.0966
     27 N          62.4508   83.0225   14.9425 N.ar    1  UNL1       -0.2273
     28 C          62.5450   81.8835   13.9710 C.ar    1  UNL1        0.1402
     29 N          62.5443   80.3961   14.1652 N.ar    1  UNL1       -0.3377
     30 C          62.6543   79.4849   12.9788 C.ar    1  UNL1        0.0691
     31 C          62.7650   80.0610   11.5983 C.ar    1  UNL1       -0.0047
     32 C          62.8750   79.1497   10.4119 C.3     1  UNL1        0.0326
     33 C          62.7657   81.5484   11.4041 C.ar    1  UNL1       -0.0001
     34 C          62.6557   82.4596   12.5905 C.ar    1  UNL1        0.0315
     35 H          62.4716   80.0180   15.0712 H       1  UNL1        0.1674
@<TRIPOS>BOND
     1    22    23    1
     2    23    19    1
     3    19    20    2
     4    19    21    2
     5    19    17    1
     6    17    11    1
     7    11    12   ar
     8    12    13   ar
     9    13    14   ar
    10    14    15   ar
    11    15    16   ar
    12    16    10    1
    13    10     8    1
    14     8     1    1
    15     1     2   ar
    16     2     3   ar
    17     3     4   ar
    18     4    24    1
    19    24    25    1
    20    25    26   ar
    21    26    27   ar
    22    27    28   ar
    23    28    29   ar
    24    29    30   ar
    25    30    31   ar
    26    31    32    1
    27    31    33   ar
    28    33    34   ar
    29     4     5   ar
    30     5     6    1
    31     5     7   ar
    32    16    11   ar
    33     7     1   ar
    34    34    25   ar
    35    34    28    1
    36    17    18    1
    37     8     9    1
    38    29    35    1
@<TRIPOS>MOLECULE
*****
 35 38 0 0 0
SMALL
GASTEIGER

@<TRIPOS>ATOM
      1 C          62.1302   86.3190   10.7257 C.ar    1  UNL1        0.1311
      2 C          62.8833   86.8606   11.9045 C.ar    1  UNL1        0.0339
      3 C          63.0329   88.3425   12.0822 C.ar    1  UNL1        0.0027
      4 C          62.4295   89.2827   11.0813 C.ar    1  UNL1        0.0283
      5 C          61.6764   88.7410    9.9025 C.ar    1  UNL1        0.2196
      6 F          61.0730   89.6812    8.9015 F       1  UNL1       -0.1835
      7 N          61.5268   87.2592    9.7248 N.ar    1  UNL1       -0.2035
      8 N          61.9805   84.8371   10.5479 N.pl3   1  UNL1       -0.3144
      9 H          61.1030   84.4552   10.3167 H       1  UNL1        0.1485
     10 C          63.1677   83.9370   10.7223 C.3     1  UNL1        0.1166
     11 C          63.5967   83.2221   13.1830 C.ar    1  UNL1        0.0620
     12 C          63.5881   82.1675   14.2496 C.ar    1  UNL1        0.0156
     13 C          63.1419   80.7733   13.9223 C.ar    1  UNL1        0.0013
     14 C          62.7044   80.4337   12.5283 C.ar    1  UNL1       -0.0002
     15 C          62.7130   81.4882   11.4616 C.ar    1  UNL1       -0.0014
     16 C          63.1592   82.8825   11.7890 C.ar    1  UNL1        0.0120
     17 N          64.0428   84.6163   13.5103 N.pl3   1  UNL1       -0.2190
     18 H          64.4083   85.1950   12.8027 H       1  UNL1        0.1733
     19 S          63.9321   85.1287   14.9157 S.O2    1  UNL1        0.0539
     20 O          62.4468   84.9226   14.8738 O.2     1  UNL1       -0.1545
     21 O          65.4173   85.3348   14.9576 O.2     1  UNL1       -0.1545
     22 C          62.4706   85.8371   16.9436 C.3     1  UNL1        0.0292
     23 C          63.8213   85.6411   16.3210 C.3     1  UNL1        0.1724
     24 C          62.5792   90.7647   11.2591 C.3     1  UNL1        0.0582
     25 C          63.6285   91.3069   12.1837 C.ar    1  UNL1        0.0044
     26 C          63.7113   91.0653   13.6618 C.ar    1  UNL1        0.0966
     27 N          64.9132   91.7951   14.1840 N.ar    1  UNL1       -0.2273
     28 C          65.5733   92.4877   13.0288 C.ar    1  UNL1        0.1402
     29 N          66.7947   93.3540   12.9428 N.ar    1  UNL1       -0.3377
     30 C          67.2221   93.9187   11.6206 C.ar    1  UNL1        0.0691
     31 C          66.4281   93.6170   10.3843 C.ar    1  UNL1       -0.0047
     32 C          66.8556   94.1818    9.0620 C.3     1  UNL1        0.0326
     33 C          65.2067   92.7506   10.4702 C.ar    1  UNL1       -0.0001
     34 C          64.7792   92.1860   11.7924 C.ar    1  UNL1        0.0315
     35 H          67.3158   93.5521   13.7543 H       1  UNL1        0.1674
@<TRIPOS>BOND
     1    22    23    1
     2    23    19    1
     3    19    20    2
     4    19    21    2
     5    19    17    1
     6    17    11    1
     7    11    12   ar
     8    12    13   ar
     9    13    14   ar
    10    14    15   ar
    11    15    16   ar
    12    16    10    1
    13    10     8    1
    14     8     1    1
    15     1     2   ar
    16     2     3   ar
    17     3     4   ar
    18     4    24    1
    19    24    25    1
    20    25    26   ar
    21    26    27   ar
    22    27    28   ar
    23    28    29   ar
    24    29    30   ar
    25    30    31   ar
    26    31    32    1
    27    31    33   ar
    28    33    34   ar
    29     4     5   ar
    30     5     6    1
    31     5     7   ar
    32    16    11   ar
    33     7     1   ar
    34    34    25   ar
    35    34    28    1
    36    17    18    1
    37     8     9    1
    38    29    35    1
