@<TRIPOS>MOLECULE
*****
 33 37 0 0 0
SMALL
GASTEIGER

@<TRIPOS>ATOM
      1 C          66.3816   92.9924   13.9052 C.ar    1  UNL1        0.1346
      2 N          66.8853   94.2877   13.3409 N.ar    1  UNL1       -0.2290
      3 C          66.4264   94.7454   11.9882 C.ar    1  UNL1        0.1018
      4 C          65.4637   93.9079   11.1997 C.ar    1  UNL1        0.0380
      5 C          64.9600   92.6126   11.7640 C.ar    1  UNL1        0.0658
      6 C          65.4189   92.1549   13.1168 C.ar    1  UNL1        0.0666
      7 C          64.7554   90.8423   13.4117 C.ar    1  UNL1        0.1056
      8 N          64.8303   89.9233   14.5948 N.ar    1  UNL1       -0.2223
      9 C          64.0362   88.6508   14.6075 C.ar    1  UNL1        0.2001
     10 N          63.1672   88.2972   13.4370 N.ar    1  UNL1       -0.2075
     11 C          63.0924   89.2162   12.2539 C.ar    1  UNL1        0.1509
     12 C          63.8865   90.4888   12.2412 C.ar    1  UNL1        0.1100
     13 N          64.0129   91.5829   11.2229 N.ar    1  UNL1       -0.3216
     14 C          63.3148   91.6377    9.8964 C.3     1  UNL1        0.1306
     15 N          62.2234   88.8627   11.0834 N.pl3   1  UNL1       -0.2892
     16 C          61.0371   89.7160   10.7453 C.3     1  UNL1        0.1095
     17 C          60.1682   89.3624    9.5748 C.3     1  UNL1        0.0939
     18 N          60.4856   88.1555    8.7425 N.3     1  UNL1       -0.2695
     19 C          61.6720   87.3022    9.0807 C.3     1  UNL1        0.0939
     20 C          62.5409   87.6558   10.2511 C.3     1  UNL1        0.1095
     21 C          59.6167   87.8020    7.5721 C.3     1  UNL1        0.0769
     22 C          58.5488   88.7520    7.1167 C.3     1  UNL1        0.0437
     23 C          58.8847   89.8527    6.1547 C.ar    1  UNL1       -0.0184
     24 C          57.8072   90.7719    5.6609 C.ar    1  UNL1       -0.0018
     25 C          58.1432   91.8727    4.6989 C.ar    1  UNL1        0.0316
     26 C          59.5566   92.0543    4.2307 C.ar    1  UNL1        0.1674
     27 F          59.8925   93.1551    3.2687 F       1  UNL1       -0.2018
     28 C          60.6342   91.1350    4.7246 C.ar    1  UNL1        0.1671
     29 F          62.0477   91.3165    4.2564 F       1  UNL1       -0.2018
     30 C          60.2983   90.0343    5.6865 C.ar    1  UNL1        0.0277
     31 C          65.9119   92.6184   16.4329 C.3     1  UNL1        0.1136
     32 N          66.8405   92.5347   15.2580 N.pl3   1  UNL1       -0.2897
     33 C          68.2280   91.9933   15.4357 C.3     1  UNL1        0.1136
@<TRIPOS>BOND
     1    31    32    1
     2    32    33    1
     3    32     1    1
     4     1     2   ar
     5     2     3   ar
     6     3     4   ar
     7     4     5   ar
     8     5     6   ar
     9     6     7   ar
    10     7     8   ar
    11     8     9   ar
    12     9    10   ar
    13    10    11   ar
    14    11    15    1
    15    15    16    1
    16    16    17    1
    17    17    18    1
    18    18    21    1
    19    21    22    1
    20    22    23    1
    21    23    24   ar
    22    24    25   ar
    23    25    26   ar
    24    26    27    1
    25    26    28   ar
    26    28    29    1
    27    28    30   ar
    28    18    19    1
    29    19    20    1
    30    11    12   ar
    31    12    13   ar
    32    13    14    1
    33     6     1   ar
    34    12     7   ar
    35    13     5   ar
    36    20    15    1
    37    30    23   ar
@<TRIPOS>MOLECULE
*****
 33 37 0 0 0
SMALL
GASTEIGER

@<TRIPOS>ATOM
      1 C          56.5476   92.3457   -5.1281 C.ar    1  UNL1        0.1346
      2 N          55.6290   91.5715   -4.2298 N.ar    1  UNL1       -0.2290
      3 C          55.9690   91.3981   -2.7792 C.ar    1  UNL1        0.1018
      4 C          57.2276   91.9988   -2.2268 C.ar    1  UNL1        0.0380
      5 C          58.1462   92.7729   -3.1251 C.ar    1  UNL1        0.0658
      6 C          57.8061   92.9463   -4.5757 C.ar    1  UNL1        0.0666
      7 C          58.8965   93.7549   -5.2139 C.ar    1  UNL1        0.1056
      8 N          59.0972   94.2362   -6.6204 N.ar    1  UNL1       -0.2223
      9 C          60.3117   95.0437   -6.9707 C.ar    1  UNL1        0.2001
     10 N          61.3257   95.3700   -5.9145 N.ar    1  UNL1       -0.2075
     11 C          61.1251   94.8887   -4.5081 C.ar    1  UNL1        0.1509
     12 C          59.9105   94.0811   -4.1578 C.ar    1  UNL1        0.1100
     13 N          59.4467   93.4742   -2.8668 N.ar    1  UNL1       -0.3216
     14 C          60.1585   93.5545   -1.5489 C.3     1  UNL1        0.1306
     15 N          62.1390   95.2149   -3.4519 N.pl3   1  UNL1       -0.2892
     16 C          63.2261   94.2338   -3.1274 C.3     1  UNL1        0.1095
     17 C          64.2401   94.5602   -2.0712 C.3     1  UNL1        0.0939
     18 N          64.1669   95.8676   -1.3396 N.3     1  UNL1       -0.2695
     19 C          63.0797   96.8488   -1.6642 C.3     1  UNL1        0.0939
     20 C          62.0658   96.5225   -2.7203 C.3     1  UNL1        0.1095
     21 C          65.1808   96.1938   -0.2835 C.3     1  UNL1        0.0769
     22 C          64.9064   95.8515    1.1510 C.3     1  UNL1        0.0437
     23 C          63.7103   95.0198    1.5080 C.ar    1  UNL1       -0.0184
     24 C          62.3406   95.6310    1.4937 C.ar    1  UNL1       -0.0018
     25 C          61.1444   94.7993    1.8507 C.ar    1  UNL1        0.0316
     26 C          61.3179   93.3564    2.2220 C.ar    1  UNL1        0.1674
     27 F          60.1218   92.5247    2.5790 F       1  UNL1       -0.2018
     28 C          62.6877   92.7451    2.2363 C.ar    1  UNL1        0.1671
     29 F          62.8613   91.3022    2.6075 F       1  UNL1       -0.2018
     30 C          63.8838   93.5768    1.8793 C.ar    1  UNL1        0.0277
     31 C          56.4521   91.3987   -7.5455 C.3     1  UNL1        0.1136
     32 N          56.2075   92.5191   -6.5787 N.pl3   1  UNL1       -0.2897
     33 C          55.6229   93.8130   -7.0625 C.3     1  UNL1        0.1136
@<TRIPOS>BOND
     1    31    32    1
     2    32    33    1
     3    32     1    1
     4     1     2   ar
     5     2     3   ar
     6     3     4   ar
     7     4     5   ar
     8     5     6   ar
     9     6     7   ar
    10     7     8   ar
    11     8     9   ar
    12     9    10   ar
    13    10    11   ar
    14    11    15    1
    15    15    16    1
    16    16    17    1
    17    17    18    1
    18    18    21    1
    19    21    22    1
    20    22    23    1
    21    23    24   ar
    22    24    25   ar
    23    25    26   ar
    24    26    27    1
    25    26    28   ar
    26    28    29    1
    27    28    30   ar
    28    18    19    1
    29    19    20    1
    30    11    12   ar
    31    12    13   ar
    32    13    14    1
    33     6     1   ar
    34    12     7   ar
    35    13     5   ar
    36    20    15    1
    37    30    23   ar
@<TRIPOS>MOLECULE
*****
 33 37 0 0 0
SMALL
GASTEIGER

@<TRIPOS>ATOM
      1 C          64.6821   95.9974   -2.5288 C.ar    1  UNL1        0.1346
      2 N          65.9057   96.7948   -2.1870 N.ar    1  UNL1       -0.2290
      3 C          66.3900   96.8545   -0.7686 C.ar    1  UNL1        0.1018
      4 C          65.6508   96.1167    0.3080 C.ar    1  UNL1        0.0380
      5 C          64.4272   95.3193   -0.0337 C.ar    1  UNL1        0.0658
      6 C          63.9428   95.2596   -1.4521 C.ar    1  UNL1        0.0666
      7 C          62.7153   94.3982   -1.4869 C.ar    1  UNL1        0.1056
      8 N          61.8119   93.9832   -2.6100 N.ar    1  UNL1       -0.2223
      9 C          60.6341   93.0955   -2.3363 C.ar    1  UNL1        0.2001
     10 N          60.3599   92.6227   -0.9395 N.ar    1  UNL1       -0.2075
     11 C          61.2633   93.0377    0.1837 C.ar    1  UNL1        0.1509
     12 C          62.4410   93.9255   -0.0900 C.ar    1  UNL1        0.1100
     13 N          63.4990   94.4948    0.8081 N.ar    1  UNL1       -0.3216
     14 C          63.6095   94.2776    2.2882 C.3     1  UNL1        0.1306
     15 N          60.9890   92.5650    1.5806 N.pl3   1  UNL1       -0.2892
     16 C          59.6851   92.8983    2.2427 C.3     1  UNL1        0.1095
     17 C          59.4108   92.4256    3.6397 C.3     1  UNL1        0.0939
     18 N          60.4405   91.6195    4.3744 N.3     1  UNL1       -0.2695
     19 C          61.7446   91.2861    3.7122 C.3     1  UNL1        0.0939
     20 C          62.0188   91.7589    2.3154 C.3     1  UNL1        0.1095
     21 C          60.1663   91.1467    5.7713 C.3     1  UNL1        0.0769
     22 C          59.4040   89.8746    5.9965 C.3     1  UNL1        0.0437
     23 C          59.6807   89.0395    7.2114 C.ar    1  UNL1       -0.0184
     24 C          59.3608   87.5741    7.2030 C.ar    1  UNL1       -0.0018
     25 C          59.6375   86.7391    8.4180 C.ar    1  UNL1        0.0316
     26 C          60.2341   87.3695    9.6414 C.ar    1  UNL1        0.1674
     27 F          60.5108   86.5344   10.8563 F       1  UNL1       -0.2018
     28 C          60.5540   88.8350    9.6498 C.ar    1  UNL1        0.1671
     29 F          61.1506   89.4654   10.8732 F       1  UNL1       -0.2018
     30 C          60.2773   89.6700    8.4349 C.ar    1  UNL1        0.0277
     31 C          64.8073   94.9598   -4.9073 C.3     1  UNL1        0.1136
     32 N          64.1977   95.9377   -3.9471 N.pl3   1  UNL1       -0.2897
     33 C          63.1037   96.8560   -4.4053 C.3     1  UNL1        0.1136
@<TRIPOS>BOND
     1    31    32    1
     2    32    33    1
     3    32     1    1
     4     1     2   ar
     5     2     3   ar
     6     3     4   ar
     7     4     5   ar
     8     5     6   ar
     9     6     7   ar
    10     7     8   ar
    11     8     9   ar
    12     9    10   ar
    13    10    11   ar
    14    11    15    1
    15    15    16    1
    16    16    17    1
    17    17    18    1
    18    18    21    1
    19    21    22    1
    20    22    23    1
    21    23    24   ar
    22    24    25   ar
    23    25    26   ar
    24    26    27    1
    25    26    28   ar
    26    28    29    1
    27    28    30   ar
    28    18    19    1
    29    19    20    1
    30    11    12   ar
    31    12    13   ar
    32    13    14    1
    33     6     1   ar
    34    12     7   ar
    35    13     5   ar
    36    20    15    1
    37    30    23   ar
@<TRIPOS>MOLECULE
*****
 33 37 0 0 0
SMALL
GASTEIGER

@<TRIPOS>ATOM
      1 C          64.3915   88.0005   14.4616 C.ar    1  UNL1        0.1346
      2 N          64.9935   89.2220   15.0905 N.ar    1  UNL1       -0.2290
      3 C          64.7656   90.5715   14.4766 C.ar    1  UNL1        0.1018
      4 C          63.9356   90.6995   13.2338 C.ar    1  UNL1        0.0380
      5 C          63.3336   89.4781   12.6049 C.ar    1  UNL1        0.0658
      6 C          63.5615   88.1286   13.2188 C.ar    1  UNL1        0.0666
      7 C          62.8456   87.1112   12.3807 C.ar    1  UNL1        0.1056
      8 N          62.7175   85.6216   12.5020 N.ar    1  UNL1       -0.2223
      9 C          61.9190   84.8527   11.4914 C.ar    1  UNL1        0.2001
     10 N          61.2486   85.5734   10.3595 N.ar    1  UNL1       -0.2075
     11 C          61.3767   87.0629   10.2382 C.ar    1  UNL1        0.1509
     12 C          62.1752   87.8318   11.2488 C.ar    1  UNL1        0.1100
     13 N          62.4768   89.2947   11.3874 N.ar    1  UNL1       -0.3216
     14 C          62.0045   90.3830   10.4695 C.3     1  UNL1        0.1306
     15 N          60.7063   87.7836    9.1063 N.pl3   1  UNL1       -0.2892
     16 C          60.4569   89.2597    9.2000 C.3     1  UNL1        0.1095
     17 C          59.7865   89.9803    8.0680 C.3     1  UNL1        0.0939
     18 N          59.3655   89.2248    6.8424 N.3     1  UNL1       -0.2695
     19 C          59.6149   87.7487    6.7488 C.3     1  UNL1        0.0939
     20 C          60.2853   87.0281    7.8807 C.3     1  UNL1        0.1095
     21 C          58.6951   89.9455    5.7106 C.3     1  UNL1        0.0769
     22 C          59.0180   91.3856    5.4422 C.3     1  UNL1        0.0437
     23 C          60.0585   91.7436    4.4228 C.ar    1  UNL1       -0.0184
     24 C          59.7482   92.7520    3.3567 C.ar    1  UNL1       -0.0018
     25 C          60.7888   93.1100    2.3373 C.ar    1  UNL1        0.0316
     26 C          62.1396   92.4595    2.3841 C.ar    1  UNL1        0.1674
     27 F          63.1801   92.8175    1.3647 F       1  UNL1       -0.2018
     28 C          62.4499   91.4510    3.4503 C.ar    1  UNL1        0.1671
     29 F          63.8007   90.8006    3.4970 F       1  UNL1       -0.2018
     30 C          61.4094   91.0931    4.4696 C.ar    1  UNL1        0.0277
     31 C          63.7206   86.1652   16.1738 C.3     1  UNL1        0.1136
     32 N          64.6194   86.6510   15.0756 N.pl3   1  UNL1       -0.2897
     33 C          65.7461   85.7874   14.5914 C.3     1  UNL1        0.1136
@<TRIPOS>BOND
     1    31    32    1
     2    32    33    1
     3    32     1    1
     4     1     2   ar
     5     2     3   ar
     6     3     4   ar
     7     4     5   ar
     8     5     6   ar
     9     6     7   ar
    10     7     8   ar
    11     8     9   ar
    12     9    10   ar
    13    10    11   ar
    14    11    15    1
    15    15    16    1
    16    16    17    1
    17    17    18    1
    18    18    21    1
    19    21    22    1
    20    22    23    1
    21    23    24   ar
    22    24    25   ar
    23    25    26   ar
    24    26    27    1
    25    26    28   ar
    26    28    29    1
    27    28    30   ar
    28    18    19    1
    29    19    20    1
    30    11    12   ar
    31    12    13   ar
    32    13    14    1
    33     6     1   ar
    34    12     7   ar
    35    13     5   ar
    36    20    15    1
    37    30    23   ar
