@<TRIPOS>MOLECULE
*****
 25 28 0 0 0
SMALL
GASTEIGER

@<TRIPOS>ATOM
      1 C          61.3370   89.2383   10.1066 C.3     1  UNL1        0.0326
      2 C          61.7043   87.7980    9.9060 C.ar    1  UNL1       -0.0037
      3 C          61.3672   87.1106    8.6161 C.ar    1  UNL1        0.0086
      4 C          61.7346   85.6702    8.4154 C.ar    1  UNL1        0.0574
      5 CL         61.3975   84.9828    7.1255 Cl      1  UNL1       -0.0823
      6 C          62.4391   84.9171    9.5047 C.ar    1  UNL1        0.0126
      7 C          62.7762   85.6045   10.7947 C.ar    1  UNL1        0.0163
      8 C          63.4807   84.8514   11.8841 C.2     1  UNL1        0.0109
      9 C          63.8178   85.5387   13.1740 C.2     1  UNL1        0.0386
     10 C          64.5032   85.0575   14.4184 C.2     1  UNL1        0.0801
     11 C          65.0384   83.6758   14.6520 C.3     1  UNL1        0.0538
     12 N          64.5595   86.2005   15.3881 N.2     1  UNL1       -0.1551
     13 N          63.9088   87.3881   14.7430 N.2     1  UNL1       -0.1469
     14 C          63.4504   86.9791   13.3746 C.3     1  UNL1        0.2503
     15 N          62.7459   87.7322   12.2853 N.2     1  UNL1       -0.2427
     16 C          62.4088   87.0448   10.9953 C.ar    1  UNL1        0.0743
     17 C          63.8480   83.4109   11.6834 C.3     1  UNL1        0.1564
     18 O          64.9907   83.0469   10.7823 O.3     1  UNL1       -0.3756
     19 H          65.3805   83.8543   10.4122 H       1  UNL1        0.2112
     20 C          63.0728   82.3346   12.3837 C.ar    1  UNL1        0.0276
     21 C          62.1655   82.6857   13.5254 C.ar    1  UNL1        0.0015
     22 C          61.3903   81.6093   14.2257 C.ar    1  UNL1        0.0204
     23 C          61.5223   80.1818   13.7843 C.ar    1  UNL1        0.0989
     24 N          62.4296   79.8307   12.6425 N.ar    1  UNL1       -0.2426
     25 C          63.2048   80.9071   11.9422 C.ar    1  UNL1        0.0972
@<TRIPOS>BOND
     1     1     2    1
     2     2     3   ar
     3     3     4   ar
     4     4     5    1
     5     4     6   ar
     6     6     7   ar
     7     7     8    2
     8     8    17    1
     9    17    18    1
    10    17    20    1
    11    20    21   ar
    12    21    22   ar
    13    22    23   ar
    14    23    24   ar
    15    24    25   ar
    16     8     9    1
    17     9    10    2
    18    10    11    1
    19    10    12    1
    20    12    13    2
    21    13    14    1
    22    14    15    1
    23    15    16    2
    24    16     2   ar
    25    16     7   ar
    26    25    20   ar
    27    14     9    1
    28    18    19    1
@<TRIPOS>MOLECULE
*****
 25 28 0 0 0
SMALL
GASTEIGER

@<TRIPOS>ATOM
      1 C          61.1289   87.0762    9.0681 C.3     1  UNL1        0.0326
      2 C          61.9114   87.3870   10.3093 C.ar    1  UNL1       -0.0037
      3 C          62.2098   88.8119   10.6708 C.ar    1  UNL1        0.0086
      4 C          62.9924   89.1227   11.9122 C.ar    1  UNL1        0.0574
      5 CL         63.2908   90.5476   12.2736 Cl      1  UNL1       -0.0823
      6 C          63.4766   88.0086   12.7921 C.ar    1  UNL1        0.0126
      7 C          63.1782   86.5836   12.4306 C.ar    1  UNL1        0.0163
      8 C          63.6625   85.4695   13.3106 C.2     1  UNL1        0.0109
      9 C          63.3641   84.0446   12.9492 C.2     1  UNL1        0.0386
     10 C          63.7080   82.7465   13.6175 C.2     1  UNL1        0.0801
     11 C          64.4854   82.5891   14.8907 C.3     1  UNL1        0.0538
     12 N          63.1379   81.6335   12.7892 N.2     1  UNL1       -0.1551
     13 N          62.4417   82.2437   11.6090 N.2     1  UNL1       -0.1469
     14 C          62.5815   83.7339   11.7078 C.3     1  UNL1        0.2503
     15 N          62.0973   84.8480   10.8279 N.2     1  UNL1       -0.2427
     16 C          62.3957   86.2729   11.1894 C.ar    1  UNL1        0.0743
     17 C          64.4451   85.7804   14.5520 C.3     1  UNL1        0.1564
     18 O          65.9226   85.5247   14.5908 O.3     1  UNL1       -0.3756
     19 H          66.2102   85.1607   13.7389 H       1  UNL1        0.2112
     20 C          63.7501   86.3469   15.7545 C.ar    1  UNL1        0.0276
     21 C          63.7669   87.8261   16.0029 C.ar    1  UNL1        0.0015
     22 C          63.0719   88.3925   17.2055 C.ar    1  UNL1        0.0204
     23 C          62.3602   87.4798   18.1596 C.ar    1  UNL1        0.0989
     24 N          62.3434   86.0006   17.9112 N.ar    1  UNL1       -0.2426
     25 C          63.0384   85.4341   16.7087 C.ar    1  UNL1        0.0972
@<TRIPOS>BOND
     1     1     2    1
     2     2     3   ar
     3     3     4   ar
     4     4     5    1
     5     4     6   ar
     6     6     7   ar
     7     7     8    2
     8     8    17    1
     9    17    18    1
    10    17    20    1
    11    20    21   ar
    12    21    22   ar
    13    22    23   ar
    14    23    24   ar
    15    24    25   ar
    16     8     9    1
    17     9    10    2
    18    10    11    1
    19    10    12    1
    20    12    13    2
    21    13    14    1
    22    14    15    1
    23    15    16    2
    24    16     2   ar
    25    16     7   ar
    26    25    20   ar
    27    14     9    1
    28    18    19    1
@<TRIPOS>MOLECULE
*****
 25 28 0 0 0
SMALL
GASTEIGER

@<TRIPOS>ATOM
      1 C          63.6268   90.8690    3.3314 C.3     1  UNL1        0.0326
      2 C          62.3508   91.6392    3.1626 C.ar    1  UNL1       -0.0037
      3 C          61.2324   91.4627    4.1465 C.ar    1  UNL1        0.0086
      4 C          59.9564   92.2329    3.9777 C.ar    1  UNL1        0.0574
      5 CL         58.8380   92.0564    4.9616 Cl      1  UNL1       -0.0823
      6 C          59.7987   93.1797    2.8250 C.ar    1  UNL1        0.0126
      7 C          60.9172   93.3562    1.8411 C.ar    1  UNL1        0.0163
      8 C          60.7595   94.3031    0.6883 C.2     1  UNL1        0.0109
      9 C          61.8779   94.4796   -0.2956 C.2     1  UNL1        0.0386
     10 C          62.0111   95.3344   -1.5209 C.2     1  UNL1        0.0801
     11 C          60.9689   96.2673   -2.0627 C.3     1  UNL1        0.0538
     12 N          63.3694   95.0924   -2.1094 N.2     1  UNL1       -0.1551
     13 N          64.0757   94.0881   -1.2478 N.2     1  UNL1       -0.1469
     14 C          63.1539   93.7093   -0.1267 C.3     1  UNL1        0.2503
     15 N          63.3115   92.7625    1.0260 N.2     1  UNL1       -0.2427
     16 C          62.1931   92.5860    2.0099 C.ar    1  UNL1        0.0743
     17 C          59.4834   95.0733    0.5195 C.3     1  UNL1        0.1564
     18 O          59.3146   96.4020    1.1949 O.3     1  UNL1       -0.3756
     19 H          60.1170   96.6138    1.6969 H       1  UNL1        0.2112
     20 C          58.3764   94.5149   -0.3245 C.ar    1  UNL1        0.0276
     21 C          58.2126   93.0300   -0.4603 C.ar    1  UNL1        0.0015
     22 C          57.1055   92.4717   -1.3044 C.ar    1  UNL1        0.0204
     23 C          56.1621   93.3981   -2.0127 C.ar    1  UNL1        0.0989
     24 N          56.3258   94.8830   -1.8769 N.ar    1  UNL1       -0.2426
     25 C          57.4330   95.4413   -1.0328 C.ar    1  UNL1        0.0972
@<TRIPOS>BOND
     1     1     2    1
     2     2     3   ar
     3     3     4   ar
     4     4     5    1
     5     4     6   ar
     6     6     7   ar
     7     7     8    2
     8     8    17    1
     9    17    18    1
    10    17    20    1
    11    20    21   ar
    12    21    22   ar
    13    22    23   ar
    14    23    24   ar
    15    24    25   ar
    16     8     9    1
    17     9    10    2
    18    10    11    1
    19    10    12    1
    20    12    13    2
    21    13    14    1
    22    14    15    1
    23    15    16    2
    24    16     2   ar
    25    16     7   ar
    26    25    20   ar
    27    14     9    1
    28    18    19    1
@<TRIPOS>MOLECULE
*****
 25 28 0 0 0
SMALL
GASTEIGER

@<TRIPOS>ATOM
      1 C          62.7474   91.2352    8.9297 C.3     1  UNL1        0.0326
      2 C          62.4601   90.7896   10.3328 C.ar    1  UNL1       -0.0037
      3 C          61.2149   90.0084   10.6315 C.ar    1  UNL1        0.0086
      4 C          60.9275   89.5628   12.0347 C.ar    1  UNL1        0.0574
      5 CL         59.6823   88.7817   12.3335 Cl      1  UNL1       -0.0823
      6 C          61.8855   89.8982   13.1391 C.ar    1  UNL1        0.0126
      7 C          63.1308   90.6794   12.8404 C.ar    1  UNL1        0.0163
      8 C          64.0887   91.0149   13.9449 C.2     1  UNL1        0.0109
      9 C          65.3339   91.7960   13.6461 C.2     1  UNL1        0.0386
     10 C          66.4549   92.2714   14.5222 C.2     1  UNL1        0.0801
     11 C          66.5748   92.0467   16.0004 C.3     1  UNL1        0.0538
     12 N          67.4350   93.0108   13.6604 N.2     1  UNL1       -0.1551
     13 N          66.9197   92.9924   12.2518 N.2     1  UNL1       -0.1469
     14 C          65.6212   92.2416   12.2430 C.3     1  UNL1        0.2503
     15 N          64.6633   91.9061   11.1385 N.2     1  UNL1       -0.2427
     16 C          63.4180   91.1250   11.4373 C.ar    1  UNL1        0.0743
     17 C          63.8014   90.5692   15.3481 C.3     1  UNL1        0.1564
     18 O          63.5683   91.5867   16.4252 O.3     1  UNL1       -0.3756
     19 H          63.6383   92.4779   16.0488 H       1  UNL1        0.2112
     20 C          63.7471   89.1061   15.6740 C.ar    1  UNL1        0.0276
     21 C          64.4646   88.1168   14.8043 C.ar    1  UNL1        0.0015
     22 C          64.4103   86.6536   15.1303 C.ar    1  UNL1        0.0204
     23 C          63.6385   86.1798   16.3260 C.ar    1  UNL1        0.0989
     24 N          62.9210   87.1691   17.1957 N.ar    1  UNL1       -0.2426
     25 C          62.9753   88.6322   16.8697 C.ar    1  UNL1        0.0972
@<TRIPOS>BOND
     1     1     2    1
     2     2     3   ar
     3     3     4   ar
     4     4     5    1
     5     4     6   ar
     6     6     7   ar
     7     7     8    2
     8     8    17    1
     9    17    18    1
    10    17    20    1
    11    20    21   ar
    12    21    22   ar
    13    22    23   ar
    14    23    24   ar
    15    24    25   ar
    16     8     9    1
    17     9    10    2
    18    10    11    1
    19    10    12    1
    20    12    13    2
    21    13    14    1
    22    14    15    1
    23    15    16    2
    24    16     2   ar
    25    16     7   ar
    26    25    20   ar
    27    14     9    1
    28    18    19    1
@<TRIPOS>MOLECULE
*****
 25 28 0 0 0
SMALL
GASTEIGER

@<TRIPOS>ATOM
      1 C          60.8213   85.0506    7.4313 C.3     1  UNL1        0.0326
      2 C          60.7465   86.3897    8.1030 C.ar    1  UNL1       -0.0037
      3 C          60.0014   87.5158    7.4498 C.ar    1  UNL1        0.0086
      4 C          59.9265   88.8550    8.1215 C.ar    1  UNL1        0.0574
      5 CL         59.1815   89.9811    7.4683 Cl      1  UNL1       -0.0823
      6 C          60.5968   89.0680    9.4463 C.ar    1  UNL1        0.0126
      7 C          61.3420   87.9418   10.0996 C.ar    1  UNL1        0.0163
      8 C          62.0123   88.1548   11.4245 C.2     1  UNL1        0.0109
      9 C          62.7574   87.0287   12.0777 C.2     1  UNL1        0.0386
     10 C          63.5114   86.9412   13.3714 C.2     1  UNL1        0.0801
     11 C          63.6928   88.0519   14.3632 C.3     1  UNL1        0.0538
     12 N          64.0522   85.5479   13.4993 N.2     1  UNL1       -0.1551
     13 N          63.6325   84.7744   12.2846 N.2     1  UNL1       -0.1469
     14 C          62.8322   85.6896   11.4060 C.3     1  UNL1        0.2503
     15 N          62.1619   85.4766   10.0811 N.2     1  UNL1       -0.2427
     16 C          61.4168   86.6027    9.4279 C.ar    1  UNL1        0.0743
     17 C          61.9374   89.4940   12.0962 C.3     1  UNL1        0.1564
     18 O          60.7609   89.8338   12.9624 O.3     1  UNL1       -0.3756
     19 H          60.1459   89.0839   12.9812 H       1  UNL1        0.2112
     20 C          63.0390   90.4933   11.9015 C.ar    1  UNL1        0.0276
     21 C          63.3769   90.9781   10.5229 C.ar    1  UNL1        0.0015
     22 C          64.4785   91.9774   10.3283 C.ar    1  UNL1        0.0204
     23 C          65.2422   92.4919   11.5124 C.ar    1  UNL1        0.0989
     24 N          64.9042   92.0071   12.8911 N.ar    1  UNL1       -0.2426
     25 C          63.8026   91.0078   13.0856 C.ar    1  UNL1        0.0972
@<TRIPOS>BOND
     1     1     2    1
     2     2     3   ar
     3     3     4   ar
     4     4     5    1
     5     4     6   ar
     6     6     7   ar
     7     7     8    2
     8     8    17    1
     9    17    18    1
    10    17    20    1
    11    20    21   ar
    12    21    22   ar
    13    22    23   ar
    14    23    24   ar
    15    24    25   ar
    16     8     9    1
    17     9    10    2
    18    10    11    1
    19    10    12    1
    20    12    13    2
    21    13    14    1
    22    14    15    1
    23    15    16    2
    24    16     2   ar
    25    16     7   ar
    26    25    20   ar
    27    14     9    1
    28    18    19    1
@<TRIPOS>MOLECULE
*****
 25 28 0 0 0
SMALL
GASTEIGER

@<TRIPOS>ATOM
      1 C          64.0473   92.6534    1.7861 C.3     1  UNL1        0.0326
      2 C          62.5878   92.9187    1.5648 C.ar    1  UNL1       -0.0037
      3 C          61.5932   92.5805    2.6355 C.ar    1  UNL1        0.0086
      4 C          60.1335   92.8458    2.4142 C.ar    1  UNL1        0.0574
      5 CL         59.1389   92.5075    3.4848 Cl      1  UNL1       -0.0823
      6 C          59.6684   93.4494    1.1222 C.ar    1  UNL1        0.0126
      7 C          60.6631   93.7877    0.0514 C.ar    1  UNL1        0.0163
      8 C          60.1979   94.3914   -1.2406 C.2     1  UNL1        0.0109
      9 C          61.1925   94.7297   -2.3113 C.2     1  UNL1        0.0386
     10 C          61.0322   95.3289   -3.6770 C.2     1  UNL1        0.0801
     11 C          59.7384   95.7493   -4.3090 C.3     1  UNL1        0.0538
     12 N          62.3927   95.4339   -4.2997 N.2     1  UNL1       -0.1551
     13 N          63.3940   94.8996   -3.3189 N.2     1  UNL1       -0.1469
     14 C          62.6522   94.4643   -2.0899 C.3     1  UNL1        0.2503
     15 N          63.1172   93.8607   -0.7979 N.2     1  UNL1       -0.2427
     16 C          62.1226   93.5224    0.2728 C.ar    1  UNL1        0.0743
     17 C          58.7382   94.6567   -1.4619 C.3     1  UNL1        0.1564
     18 O          58.1658   96.0077   -1.1500 O.3     1  UNL1       -0.3756
     19 H          58.8686   96.5876   -0.8172 H       1  UNL1        0.2112
     20 C          57.8510   93.5712   -1.9950 C.ar    1  UNL1        0.0276
     21 C          58.2875   92.7591   -3.1783 C.ar    1  UNL1        0.0015
     22 C          57.4002   91.6736   -3.7114 C.ar    1  UNL1        0.0204
     23 C          56.0764   91.4000   -3.0612 C.ar    1  UNL1        0.0989
     24 N          55.6399   92.2120   -1.8780 N.ar    1  UNL1       -0.2426
     25 C          56.5272   93.2976   -1.3449 C.ar    1  UNL1        0.0972
@<TRIPOS>BOND
     1     1     2    1
     2     2     3   ar
     3     3     4   ar
     4     4     5    1
     5     4     6   ar
     6     6     7   ar
     7     7     8    2
     8     8    17    1
     9    17    18    1
    10    17    20    1
    11    20    21   ar
    12    21    22   ar
    13    22    23   ar
    14    23    24   ar
    15    24    25   ar
    16     8     9    1
    17     9    10    2
    18    10    11    1
    19    10    12    1
    20    12    13    2
    21    13    14    1
    22    14    15    1
    23    15    16    2
    24    16     2   ar
    25    16     7   ar
    26    25    20   ar
    27    14     9    1
    28    18    19    1
@<TRIPOS>MOLECULE
*****
 25 28 0 0 0
SMALL
GASTEIGER

@<TRIPOS>ATOM
      1 C          62.0603   90.4720    9.6780 C.3     1  UNL1        0.0326
      2 C          61.8063   89.0195    9.9525 C.ar    1  UNL1       -0.0037
      3 C          60.9577   88.2157    9.0124 C.ar    1  UNL1        0.0086
      4 C          60.7037   86.7630    9.2869 C.ar    1  UNL1        0.0574
      5 CL         59.8551   85.9592    8.3468 Cl      1  UNL1       -0.0823
      6 C          61.2983   86.1142   10.5016 C.ar    1  UNL1        0.0126
      7 C          62.1469   86.9180   11.4417 C.ar    1  UNL1        0.0163
      8 C          62.7415   86.2690   12.6564 C.2     1  UNL1        0.0109
      9 C          63.5901   87.0728   13.5965 C.2     1  UNL1        0.0386
     10 C          64.3041   86.7089   14.8645 C.2     1  UNL1        0.0801
     11 C          64.3200   85.3551   15.5101 C.3     1  UNL1        0.0538
     12 N          64.9993   87.9367   15.3737 N.2     1  UNL1       -0.1551
     13 N          64.7150   89.0594   14.4203 N.2     1  UNL1       -0.1469
     14 C          63.8441   88.5254   13.3220 C.3     1  UNL1        0.2503
     15 N          63.2495   89.1743   12.1073 N.2     1  UNL1       -0.2427
     16 C          62.4009   88.3705   11.1672 C.ar    1  UNL1        0.0743
     17 C          62.4875   84.8164   12.9309 C.3     1  UNL1        0.1564
     18 O          61.6939   84.4086   14.1367 O.3     1  UNL1       -0.3756
     19 H          61.4223   85.1998   14.6278 H       1  UNL1        0.2112
     20 C          63.0270   83.7716   11.9997 C.ar    1  UNL1        0.0276
     21 C          62.4638   82.3816   12.0247 C.ar    1  UNL1        0.0015
     22 C          63.0035   81.3369   11.0934 C.ar    1  UNL1        0.0204
     23 C          64.1063   81.6822   10.1370 C.ar    1  UNL1        0.0989
     24 N          64.6695   83.0722   10.1120 N.ar    1  UNL1       -0.2426
     25 C          64.1299   84.1169   11.0433 C.ar    1  UNL1        0.0972
@<TRIPOS>BOND
     1     1     2    1
     2     2     3   ar
     3     3     4   ar
     4     4     5    1
     5     4     6   ar
     6     6     7   ar
     7     7     8    2
     8     8    17    1
     9    17    18    1
    10    17    20    1
    11    20    21   ar
    12    21    22   ar
    13    22    23   ar
    14    23    24   ar
    15    24    25   ar
    16     8     9    1
    17     9    10    2
    18    10    11    1
    19    10    12    1
    20    12    13    2
    21    13    14    1
    22    14    15    1
    23    15    16    2
    24    16     2   ar
    25    16     7   ar
    26    25    20   ar
    27    14     9    1
    28    18    19    1
@<TRIPOS>MOLECULE
*****
 25 28 0 0 0
SMALL
GASTEIGER

@<TRIPOS>ATOM
      1 C          61.7817   91.9872    2.8469 C.3     1  UNL1        0.0326
      2 C          62.3569   92.7477    1.6892 C.ar    1  UNL1       -0.0037
      3 C          63.7516   93.2941    1.7694 C.ar    1  UNL1        0.0086
      4 C          64.3270   94.0547    0.6116 C.ar    1  UNL1        0.0574
      5 CL         65.7216   94.6011    0.6918 Cl      1  UNL1       -0.0823
      6 C          63.5076   94.2689   -0.6265 C.ar    1  UNL1        0.0126
      7 C          62.1129   93.7225   -0.7067 C.ar    1  UNL1        0.0163
      8 C          61.2936   93.9367   -1.9449 C.2     1  UNL1        0.0109
      9 C          59.8990   93.3903   -2.0251 C.2     1  UNL1        0.0386
     10 C          58.8611   93.4430   -3.1068 C.2     1  UNL1        0.0801
     11 C          59.0133   94.1070   -4.4432 C.3     1  UNL1        0.0538
     12 N          57.6444   92.7149   -2.6175 N.2     1  UNL1       -0.1551
     13 N          57.9302   92.2123   -1.2334 N.2     1  UNL1       -0.1469
     14 C          59.3237   92.6298   -0.8673 C.3     1  UNL1        0.2503
     15 N          60.1430   92.4156    0.3708 N.2     1  UNL1       -0.2427
     16 C          61.5376   92.9619    0.4510 C.ar    1  UNL1        0.0743
     17 C          61.8690   94.6973   -3.1027 C.3     1  UNL1        0.1564
     18 O          61.6484   96.1769   -3.2119 O.3     1  UNL1       -0.3756
     19 H          61.1181   96.4812   -2.4588 H       1  UNL1        0.2112
     20 C          62.6649   93.9782   -4.1512 C.ar    1  UNL1        0.0276
     21 C          63.7316   93.0043   -3.7466 C.ar    1  UNL1        0.0015
     22 C          64.5275   92.2853   -4.7951 C.ar    1  UNL1        0.0204
     23 C          64.2567   92.5401   -6.2483 C.ar    1  UNL1        0.0989
     24 N          63.1901   93.5141   -6.6530 N.ar    1  UNL1       -0.2426
     25 C          62.3942   94.2331   -5.6044 C.ar    1  UNL1        0.0972
@<TRIPOS>BOND
     1     1     2    1
     2     2     3   ar
     3     3     4   ar
     4     4     5    1
     5     4     6   ar
     6     6     7   ar
     7     7     8    2
     8     8    17    1
     9    17    18    1
    10    17    20    1
    11    20    21   ar
    12    21    22   ar
    13    22    23   ar
    14    23    24   ar
    15    24    25   ar
    16     8     9    1
    17     9    10    2
    18    10    11    1
    19    10    12    1
    20    12    13    2
    21    13    14    1
    22    14    15    1
    23    15    16    2
    24    16     2   ar
    25    16     7   ar
    26    25    20   ar
    27    14     9    1
    28    18    19    1
@<TRIPOS>MOLECULE
*****
 25 28 0 0 0
SMALL
GASTEIGER

@<TRIPOS>ATOM
      1 C          61.1003   85.3689    7.1896 C.3     1  UNL1        0.0326
      2 C          61.1498   86.0178    8.5410 C.ar    1  UNL1       -0.0037
      3 C          60.3384   87.2500    8.8116 C.ar    1  UNL1        0.0086
      4 C          60.3879   87.8990   10.1631 C.ar    1  UNL1        0.0574
      5 CL         59.5766   89.1312   10.4336 Cl      1  UNL1       -0.0823
      6 C          61.2489   87.3156   11.2440 C.ar    1  UNL1        0.0126
      7 C          62.0603   86.0833   10.9734 C.ar    1  UNL1        0.0163
      8 C          62.9213   85.4999   12.0545 C.2     1  UNL1        0.0109
      9 C          63.7326   84.2677   11.7839 C.2     1  UNL1        0.0386
     10 C          64.6662   83.4713   12.6466 C.2     1  UNL1        0.0801
     11 C          65.0117   83.7645   14.0765 C.3     1  UNL1        0.0538
     12 N          65.1936   82.3302   11.8282 N.2     1  UNL1       -0.1551
     13 N          64.5860   82.4213   10.4598 N.2     1  UNL1       -0.1469
     14 C          63.6831   83.6188   10.4324 C.3     1  UNL1        0.2503
     15 N          62.8221   84.2022    9.3515 N.2     1  UNL1       -0.2427
     16 C          62.0108   85.4344    9.6220 C.ar    1  UNL1        0.0743
     17 C          62.9708   86.1489   13.4060 C.3     1  UNL1        0.1564
     18 O          62.4669   85.4112   14.6110 O.3     1  UNL1       -0.3756
     19 H          62.1461   84.5358   14.3434 H       1  UNL1        0.2112
     20 C          63.5241   87.5353   13.5524 C.ar    1  UNL1        0.0276
     21 C          63.3219   88.5429   12.4597 C.ar    1  UNL1        0.0015
     22 C          63.8753   89.9293   12.6062 C.ar    1  UNL1        0.0204
     23 C          64.6309   90.3082   13.8454 C.ar    1  UNL1        0.0989
     24 N          64.8331   89.3007   14.9380 N.ar    1  UNL1       -0.2426
     25 C          64.2797   87.9142   14.7915 C.ar    1  UNL1        0.0972
@<TRIPOS>BOND
     1     1     2    1
     2     2     3   ar
     3     3     4   ar
     4     4     5    1
     5     4     6   ar
     6     6     7   ar
     7     7     8    2
     8     8    17    1
     9    17    18    1
    10    17    20    1
    11    20    21   ar
    12    21    22   ar
    13    22    23   ar
    14    23    24   ar
    15    24    25   ar
    16     8     9    1
    17     9    10    2
    18    10    11    1
    19    10    12    1
    20    12    13    2
    21    13    14    1
    22    14    15    1
    23    15    16    2
    24    16     2   ar
    25    16     7   ar
    26    25    20   ar
    27    14     9    1
    28    18    19    1
