@<TRIPOS>MOLECULE
*****
 38 43 0 0 0
SMALL
GASTEIGER

@<TRIPOS>ATOM
      1 C          61.7027   87.5044   10.5811 C.ar    1  UNL1        0.0536
      2 C          62.1473   86.7883   11.8219 C.ar    1  UNL1        0.0049
      3 C          63.0711   87.4671   12.7892 C.ar    1  UNL1        0.0305
      4 C          63.5503   88.8619   12.5158 C.ar    1  UNL1        0.1474
      5 O          64.4742   89.5407   13.4832 O.2     1  UNL1       -0.4400
      6 C          64.9534   90.9355   13.2098 C.ar    1  UNL1        0.2024
      7 C          64.5088   91.6516   11.9689 C.ar    1  UNL1        0.0955
      8 C          63.5850   90.9728   11.0015 C.ar    1  UNL1        0.2030
      9 O          63.1405   91.6888    9.7607 O.2     1  UNL1       -0.2863
     10 C          63.1058   89.5780   11.2750 C.ar    1  UNL1        0.0735
     11 C          62.1820   88.8992   10.3076 C.ar    1  UNL1        0.0107
     12 O          59.2942   86.9829    9.7581 O.2     1  UNL1       -0.2699
     13 C          60.7789   86.8256    9.6136 C.2     1  UNL1        0.2492
     14 N          61.3398   85.9895    8.5017 N.am    1  UNL1       -0.2709
     15 C          62.8245   85.8321    8.3572 C.3     1  UNL1        0.1258
     16 C          63.3854   84.9960    7.2453 C.3     1  UNL1        0.1637
     17 O          62.4615   84.3173    6.2779 O.3     1  UNL1       -0.3501
     18 C          60.9768   84.4746    6.4224 C.3     1  UNL1        0.1637
     19 C          60.4160   85.3107    7.5343 C.3     1  UNL1        0.1258
     20 N          65.8772   91.6143   14.1771 N.pl3   1  UNL1       -0.2742
     21 C          67.2908   91.9178   13.7773 C.3     1  UNL1        0.1257
     22 C          68.2146   92.5966   14.7446 C.3     1  UNL1        0.1637
     23 O          67.7249   92.9719   16.1119 O.3     1  UNL1       -0.3501
     24 C          66.3114   92.6685   16.5117 C.3     1  UNL1        0.1637
     25 C          65.3875   91.9897   15.5444 C.3     1  UNL1        0.1257
     26 C          63.5157   86.7510   14.0301 C.3     1  UNL1        0.0983
     27 C          63.8467   87.3901   15.3461 C.3     1  UNL1        0.0261
     28 C          64.2429   86.3043   16.3021 C.3     1  UNL1        0.0235
     29 C          64.1567   84.9940   15.5769 C.3     1  UNL1        0.0911
     30 N          63.7072   85.2702   14.1727 N.pl3   1  UNL1       -0.3051
     31 C          63.4879   84.2454   13.0996 C.ar    1  UNL1        0.0525
     32 C          62.5238   83.1184   13.3245 C.ar    1  UNL1        0.0443
     33 C          62.3044   82.0935   12.2515 C.ar    1  UNL1        0.1436
     34 F          61.3404   80.9666   12.4764 F       1  UNL1       -0.2041
     35 C          63.0491   82.1956   10.9533 C.ar    1  UNL1        0.0593
     36 C          64.0131   83.3226   10.7284 C.ar    1  UNL1        0.1436
     37 F          64.7578   83.4248    9.4303 F       1  UNL1       -0.2041
     38 C          64.2325   84.3474   11.8015 C.ar    1  UNL1        0.0443
@<TRIPOS>BOND
     1    12    13    2
     2    13     1    1
     3     1     2   ar
     4     2     3   ar
     5    26     3    1
     6    26    27    1
     7    27    28    1
     8    28    29    1
     9    29    30    1
    10    30    31    1
    11    31    32   ar
    12    32    33   ar
    13    33    34    1
    14    33    35   ar
    15    35    36   ar
    16    36    37    1
    17    36    38   ar
    18     3     4   ar
    19     4     5   ar
    20     5     6   ar
    21     6    20    1
    22    20    21    1
    23    21    22    1
    24    22    23    1
    25    23    24    1
    26    24    25    1
    27     6     7   ar
    28     7     8   ar
    29     8     9    2
    30     8    10   ar
    31    10    11   ar
    32    13    14   am
    33    14    15    1
    34    15    16    1
    35    16    17    1
    36    17    18    1
    37    18    19    1
    38    11     1   ar
    39    19    14    1
    40    30    26    1
    41    38    31   ar
    42    10     4   ar
    43    25    20    1
@<TRIPOS>MOLECULE
*****
 38 43 0 0 0
SMALL
GASTEIGER

@<TRIPOS>ATOM
      1 C          63.8115   88.6644   14.6409 C.ar    1  UNL1        0.0536
      2 C          62.9575   88.7495   13.4108 C.ar    1  UNL1        0.0049
      3 C          63.2538   89.7801   12.3619 C.ar    1  UNL1        0.0305
      4 C          64.4042   90.7254   12.5432 C.ar    1  UNL1        0.1474
      5 O          64.7005   91.7560   11.4943 O.2     1  UNL1       -0.4400
      6 C          65.8509   92.7014   11.6756 C.ar    1  UNL1        0.2024
      7 C          66.7050   92.6162   12.9059 C.ar    1  UNL1        0.0955
      8 C          66.4087   91.5856   13.9547 C.ar    1  UNL1        0.2030
      9 O          67.2627   91.5005   15.1848 O.2     1  UNL1       -0.2863
     10 C          65.2583   90.6403   13.7734 C.ar    1  UNL1        0.0735
     11 C          64.9619   89.6097   14.8222 C.ar    1  UNL1        0.0107
     12 O          62.8145   88.0314   16.9551 O.2     1  UNL1       -0.2699
     13 C          63.5152   87.6338   15.6898 C.2     1  UNL1        0.2492
     14 N          63.9196   86.2056   15.4734 N.am    1  UNL1       -0.2709
     15 C          64.6203   85.8080   14.2082 C.3     1  UNL1        0.1258
     16 C          65.0246   84.3798   13.9918 C.3     1  UNL1        0.1637
     17 O          64.7283   83.3493   15.0407 O.3     1  UNL1       -0.3501
     18 C          64.0276   83.7469   16.3060 C.3     1  UNL1        0.1637
     19 C          63.6232   85.1750   16.5224 C.3     1  UNL1        0.1258
     20 N          66.1473   93.7320   10.6268 N.pl3   1  UNL1       -0.2742
     21 C          65.4657   95.0674   10.6737 C.3     1  UNL1        0.1257
     22 C          65.7620   96.0979    9.6248 C.3     1  UNL1        0.1637
     23 O          66.7400   95.7931    8.5291 O.3     1  UNL1       -0.3501
     24 C          67.4216   94.4578    8.4822 C.3     1  UNL1        0.1637
     25 C          67.1252   93.4272    9.5310 C.3     1  UNL1        0.1257
     26 C          62.3998   89.8653   11.1317 C.3     1  UNL1        0.0983
     27 C          61.8855   91.1253   10.5010 C.3     1  UNL1        0.0261
     28 C          61.0779   90.7442    9.2957 C.3     1  UNL1        0.0235
     29 C          61.0931   89.2485    9.1816 C.3     1  UNL1        0.0911
     30 N          61.9101   88.7054   10.3163 N.pl3   1  UNL1       -0.3051
     31 C          62.1885   87.2567   10.5879 C.ar    1  UNL1        0.0525
     32 C          62.7818   86.3930    9.5146 C.ar    1  UNL1        0.0443
     33 C          63.0602   84.9442    9.7860 C.ar    1  UNL1        0.1436
     34 F          63.6535   84.0806    8.7128 F       1  UNL1       -0.2041
     35 C          62.7453   84.3593   11.1310 C.ar    1  UNL1        0.0593
     36 C          62.1520   85.2230   12.2042 C.ar    1  UNL1        0.1436
     37 F          61.8370   84.6381   13.5491 F       1  UNL1       -0.2041
     38 C          61.8736   86.6717   11.9327 C.ar    1  UNL1        0.0443
@<TRIPOS>BOND
     1    12    13    2
     2    13     1    1
     3     1     2   ar
     4     2     3   ar
     5    26     3    1
     6    26    27    1
     7    27    28    1
     8    28    29    1
     9    29    30    1
    10    30    31    1
    11    31    32   ar
    12    32    33   ar
    13    33    34    1
    14    33    35   ar
    15    35    36   ar
    16    36    37    1
    17    36    38   ar
    18     3     4   ar
    19     4     5   ar
    20     5     6   ar
    21     6    20    1
    22    20    21    1
    23    21    22    1
    24    22    23    1
    25    23    24    1
    26    24    25    1
    27     6     7   ar
    28     7     8   ar
    29     8     9    2
    30     8    10   ar
    31    10    11   ar
    32    13    14   am
    33    14    15    1
    34    15    16    1
    35    16    17    1
    36    17    18    1
    37    18    19    1
    38    11     1   ar
    39    19    14    1
    40    30    26    1
    41    38    31   ar
    42    10     4   ar
    43    25    20    1
@<TRIPOS>MOLECULE
*****
 38 43 0 0 0
SMALL
GASTEIGER

@<TRIPOS>ATOM
      1 C          62.0684   87.1242   10.7318 C.ar    1  UNL1        0.0536
      2 C          62.4804   86.4243   11.9928 C.ar    1  UNL1        0.0049
      3 C          63.2541   87.1647   13.0430 C.ar    1  UNL1        0.0305
      4 C          63.6159   88.6051   12.8322 C.ar    1  UNL1        0.1474
      5 O          64.3897   89.3455   13.8825 O.2     1  UNL1       -0.4400
      6 C          64.7515   90.7859   13.6717 C.ar    1  UNL1        0.2024
      7 C          64.3395   91.4858   12.4106 C.ar    1  UNL1        0.0955
      8 C          63.5657   90.7454   11.3603 C.ar    1  UNL1        0.2030
      9 O          63.1538   91.4453   10.0993 O.2     1  UNL1       -0.2863
     10 C          63.2040   89.3050   11.5712 C.ar    1  UNL1        0.0735
     11 C          62.4302   88.5646   10.5209 C.ar    1  UNL1        0.0107
     12 O          61.3876   84.8892    9.5955 O.2     1  UNL1       -0.2699
     13 C          61.2946   86.3838    9.6814 C.2     1  UNL1        0.2492
     14 N          60.4279   87.1380    8.7171 N.am    1  UNL1       -0.2709
     15 C          60.3349   88.6327    8.8031 C.3     1  UNL1        0.1258
     16 C          59.4682   89.3869    7.8387 C.3     1  UNL1        0.1637
     17 O          58.6944   88.6465    6.7885 O.3     1  UNL1       -0.3501
     18 C          58.7874   87.1518    6.7025 C.3     1  UNL1        0.1637
     19 C          59.6541   86.3976    7.6668 C.3     1  UNL1        0.1258
     20 N          65.5253   91.5263   14.7219 N.pl3   1  UNL1       -0.2742
     21 C          64.8464   91.9605   15.9872 C.3     1  UNL1        0.1257
     22 C          65.6202   92.7009   17.0374 C.3     1  UNL1        0.1637
     23 O          67.0728   93.0072   16.8225 O.3     1  UNL1       -0.3501
     24 C          67.7516   92.5730   15.5573 C.3     1  UNL1        0.1637
     25 C          66.9778   91.8326   14.5070 C.3     1  UNL1        0.1257
     26 C          63.6662   86.4648   14.3042 C.3     1  UNL1        0.0983
     27 C          64.0154   87.1248   15.6051 C.3     1  UNL1        0.0261
     28 C          64.3664   86.0499   16.5907 C.3     1  UNL1        0.0235
     29 C          64.2340   84.7254   15.8989 C.3     1  UNL1        0.0911
     30 N          63.8012   84.9819   14.4857 N.pl3   1  UNL1       -0.3051
     31 C          63.5480   83.9387   13.4381 C.ar    1  UNL1        0.0525
     32 C          64.2184   84.0412   12.1002 C.ar    1  UNL1        0.0443
     33 C          63.9652   82.9980   11.0525 C.ar    1  UNL1        0.1436
     34 F          64.6356   83.1005    9.7146 F       1  UNL1       -0.2041
     35 C          63.0416   81.8522   11.3428 C.ar    1  UNL1        0.0593
     36 C          62.3712   81.7497   12.6807 C.ar    1  UNL1        0.1436
     37 F          61.4476   80.6040   12.9711 F       1  UNL1       -0.2041
     38 C          62.6244   82.7930   13.7284 C.ar    1  UNL1        0.0443
@<TRIPOS>BOND
     1    12    13    2
     2    13     1    1
     3     1     2   ar
     4     2     3   ar
     5    26     3    1
     6    26    27    1
     7    27    28    1
     8    28    29    1
     9    29    30    1
    10    30    31    1
    11    31    32   ar
    12    32    33   ar
    13    33    34    1
    14    33    35   ar
    15    35    36   ar
    16    36    37    1
    17    36    38   ar
    18     3     4   ar
    19     4     5   ar
    20     5     6   ar
    21     6    20    1
    22    20    21    1
    23    21    22    1
    24    22    23    1
    25    23    24    1
    26    24    25    1
    27     6     7   ar
    28     7     8   ar
    29     8     9    2
    30     8    10   ar
    31    10    11   ar
    32    13    14   am
    33    14    15    1
    34    15    16    1
    35    16    17    1
    36    17    18    1
    37    18    19    1
    38    11     1   ar
    39    19    14    1
    40    30    26    1
    41    38    31   ar
    42    10     4   ar
    43    25    20    1
@<TRIPOS>MOLECULE
*****
 38 43 0 0 0
SMALL
GASTEIGER

@<TRIPOS>ATOM
      1 C          62.0568   89.8089   11.3366 C.ar    1  UNL1        0.0536
      2 C          62.0672   89.3106   12.7514 C.ar    1  UNL1        0.0049
      3 C          63.1371   89.7657   13.6990 C.ar    1  UNL1        0.0305
      4 C          64.1968   90.7191   13.2318 C.ar    1  UNL1        0.1474
      5 O          65.2668   91.1742   14.1795 O.2     1  UNL1       -0.4400
      6 C          66.3264   92.1276   13.7124 C.ar    1  UNL1        0.2024
      7 C          66.3160   92.6259   12.2975 C.ar    1  UNL1        0.0955
      8 C          65.2460   92.1708   11.3499 C.ar    1  UNL1        0.2030
      9 O          65.2357   92.6691    9.9352 O.2     1  UNL1       -0.2863
     10 C          64.1864   91.2174   11.8171 C.ar    1  UNL1        0.0735
     11 C          63.1165   90.7623   10.8695 C.ar    1  UNL1        0.0107
     12 O          59.7131   90.1361   10.2643 O.2     1  UNL1       -0.2699
     13 C          60.9868   89.3538   10.3889 C.2     1  UNL1        0.2492
     14 N          61.1906   88.1164    9.5660 N.am    1  UNL1       -0.2709
     15 C          62.4643   87.3340    9.6906 C.3     1  UNL1        0.1258
     16 C          62.6681   86.0966    8.8676 C.3     1  UNL1        0.1637
     17 O          61.5981   85.6416    7.9199 O.3     1  UNL1       -0.3501
     18 C          60.3243   86.4239    7.7953 C.3     1  UNL1        0.1637
     19 C          60.1206   87.6613    8.6183 C.3     1  UNL1        0.1258
     20 N          67.3964   92.5827   14.6600 N.pl3   1  UNL1       -0.2742
     21 C          68.1789   91.5743   15.4480 C.3     1  UNL1        0.1257
     22 C          69.2488   92.0294   16.3956 C.3     1  UNL1        0.1637
     23 O          69.5364   93.4929   16.5552 O.3     1  UNL1       -0.3501
     24 C          68.7539   94.5013   15.7673 C.3     1  UNL1        0.1637
     25 C          67.6839   94.0462   14.8196 C.3     1  UNL1        0.1257
     26 C          63.1475   89.2674   15.1138 C.3     1  UNL1        0.0983
     27 C          62.8891   90.0909   16.3405 C.3     1  UNL1        0.0261
     28 C          63.0000   89.1906   17.5351 C.3     1  UNL1        0.0235
     29 C          63.3270   87.8105   17.0467 C.3     1  UNL1        0.0911
     30 N          63.4182   87.8580   15.5502 N.pl3   1  UNL1       -0.3051
     31 C          63.7260   86.6995   14.6485 C.ar    1  UNL1        0.0525
     32 C          62.7473   86.2954   13.5860 C.ar    1  UNL1        0.0443
     33 C          63.0550   85.1369   12.6842 C.ar    1  UNL1        0.1436
     34 F          62.0763   84.7328   11.6218 F       1  UNL1       -0.2041
     35 C          64.3416   84.3825   12.8449 C.ar    1  UNL1        0.0593
     36 C          65.3203   84.7866   13.9074 C.ar    1  UNL1        0.1436
     37 F          66.6068   84.0323   14.0681 F       1  UNL1       -0.2041
     38 C          65.0125   85.9451   14.8091 C.ar    1  UNL1        0.0443
@<TRIPOS>BOND
     1    12    13    2
     2    13     1    1
     3     1     2   ar
     4     2     3   ar
     5    26     3    1
     6    26    27    1
     7    27    28    1
     8    28    29    1
     9    29    30    1
    10    30    31    1
    11    31    32   ar
    12    32    33   ar
    13    33    34    1
    14    33    35   ar
    15    35    36   ar
    16    36    37    1
    17    36    38   ar
    18     3     4   ar
    19     4     5   ar
    20     5     6   ar
    21     6    20    1
    22    20    21    1
    23    21    22    1
    24    22    23    1
    25    23    24    1
    26    24    25    1
    27     6     7   ar
    28     7     8   ar
    29     8     9    2
    30     8    10   ar
    31    10    11   ar
    32    13    14   am
    33    14    15    1
    34    15    16    1
    35    16    17    1
    36    17    18    1
    37    18    19    1
    38    11     1   ar
    39    19    14    1
    40    30    26    1
    41    38    31   ar
    42    10     4   ar
    43    25    20    1
@<TRIPOS>MOLECULE
*****
 38 43 0 0 0
SMALL
GASTEIGER

@<TRIPOS>ATOM
      1 C          63.9335   89.3566   13.6352 C.ar    1  UNL1        0.0536
      2 C          63.2663   89.1225   12.3124 C.ar    1  UNL1        0.0049
      3 C          62.9854   87.7230   11.8514 C.ar    1  UNL1        0.0305
      4 C          63.3716   86.5577   12.7133 C.ar    1  UNL1        0.1474
      5 O          63.0906   85.1582   12.2522 O.2     1  UNL1       -0.4400
      6 C          63.4769   83.9929   13.1141 C.ar    1  UNL1        0.2024
      7 C          64.1442   84.2271   14.4370 C.ar    1  UNL1        0.0955
      8 C          64.4251   85.6265   14.8980 C.ar    1  UNL1        0.2030
      9 O          65.0924   85.8606   16.2208 O.2     1  UNL1       -0.2863
     10 C          64.0389   86.7918   14.0361 C.ar    1  UNL1        0.0735
     11 C          64.3198   88.1913   14.4971 C.ar    1  UNL1        0.0107
     12 O          63.6205   91.2565   15.3795 O.2     1  UNL1       -0.2699
     13 C          64.2145   90.7561   14.0962 C.2     1  UNL1        0.2492
     14 N          65.0896   91.6552   13.2741 N.am    1  UNL1       -0.2709
     15 C          65.6836   91.1548   11.9908 C.3     1  UNL1        0.1258
     16 C          66.5587   92.0539   11.1687 C.3     1  UNL1        0.1637
     17 O          66.8397   93.4533   11.6297 O.3     1  UNL1       -0.3501
     18 C          66.2456   93.9537   12.9129 C.3     1  UNL1        0.1637
     19 C          65.3706   93.0547   13.7351 C.3     1  UNL1        0.1258
     20 N          63.1959   82.5934   12.6531 N.pl3   1  UNL1       -0.2742
     21 C          63.4210   82.2168   11.2187 C.3     1  UNL1        0.1257
     22 C          63.1401   80.8174   10.7577 C.3     1  UNL1        0.1637
     23 O          62.6340   79.7944   11.7311 O.3     1  UNL1       -0.3501
     24 C          62.4089   80.1710   13.1655 C.3     1  UNL1        0.1637
     25 C          62.6899   81.5705   13.6265 C.3     1  UNL1        0.1257
     26 C          62.3181   87.4888   10.5285 C.3     1  UNL1        0.0983
     27 C          62.9054   86.7486    9.3636 C.3     1  UNL1        0.0261
     28 C          61.8966   86.7560    8.2534 C.3     1  UNL1        0.0235
     29 C          60.6859   87.5010    8.7323 C.3     1  UNL1        0.0911
     30 N          60.9464   87.9538   10.1383 N.pl3   1  UNL1       -0.3051
     31 C          60.0011   88.7346   11.0025 C.ar    1  UNL1        0.0525
     32 C          59.2355   88.0433   12.0916 C.ar    1  UNL1        0.0443
     33 C          58.2902   88.8240   12.9558 C.ar    1  UNL1        0.1436
     34 F          57.5247   88.1327   14.0448 F       1  UNL1       -0.2041
     35 C          58.1105   90.2962   12.7309 C.ar    1  UNL1        0.0593
     36 C          58.8761   90.9875   11.6419 C.ar    1  UNL1        0.1436
     37 F          58.6964   92.4596   11.4170 F       1  UNL1       -0.2041
     38 C          59.8214   90.2067   10.7777 C.ar    1  UNL1        0.0443
@<TRIPOS>BOND
     1    12    13    2
     2    13     1    1
     3     1     2   ar
     4     2     3   ar
     5    26     3    1
     6    26    27    1
     7    27    28    1
     8    28    29    1
     9    29    30    1
    10    30    31    1
    11    31    32   ar
    12    32    33   ar
    13    33    34    1
    14    33    35   ar
    15    35    36   ar
    16    36    37    1
    17    36    38   ar
    18     3     4   ar
    19     4     5   ar
    20     5     6   ar
    21     6    20    1
    22    20    21    1
    23    21    22    1
    24    22    23    1
    25    23    24    1
    26    24    25    1
    27     6     7   ar
    28     7     8   ar
    29     8     9    2
    30     8    10   ar
    31    10    11   ar
    32    13    14   am
    33    14    15    1
    34    15    16    1
    35    16    17    1
    36    17    18    1
    37    18    19    1
    38    11     1   ar
    39    19    14    1
    40    30    26    1
    41    38    31   ar
    42    10     4   ar
    43    25    20    1
