@<TRIPOS>MOLECULE
*****
 35 38 0 0 0
SMALL
GASTEIGER

@<TRIPOS>ATOM
      1 N          62.8473   90.7958   11.6406 N.am    1  UNL1       -0.2438
      2 C          63.3360   91.4480   10.3813 C.3     1  UNL1        0.1009
      3 C          64.5011   92.3915   10.4287 C.3     1  UNL1        0.0661
      4 C          65.1776   92.6829   11.7354 C.3     1  UNL1        0.1578
      5 O          64.6889   92.0307   12.9948 O.3     1  UNL1       -0.4375
      6 C          63.5238   91.0872   12.9474 C.2     1  UNL1        0.4051
      7 O          63.0351   90.4350   14.2067 O.2     1  UNL1       -0.2262
      8 C          66.0005   93.5396   10.8194 C.ar    1  UNL1        0.0139
      9 C          67.1189   92.9308   10.0265 C.ar    1  UNL1        0.0014
     10 C          67.9417   93.7875    9.1105 C.ar    1  UNL1        0.0294
     11 C          67.6461   95.2529    8.9875 C.ar    1  UNL1        0.1401
     12 F          68.4690   96.1096    8.0714 F       1  UNL1       -0.2042
     13 C          66.5278   95.8617    9.7803 C.ar    1  UNL1        0.0294
     14 C          65.7049   95.0050   10.6963 C.ar    1  UNL1        0.0014
     15 C          60.2833   90.3904   11.5337 C.3     1  UNL1        0.0265
     16 C          61.6822   89.8523   11.5932 C.3     1  UNL1        0.1011
     17 C          61.9160   88.3707   11.6053 C.ar    1  UNL1       -0.0042
     18 C          63.0261   87.7933   12.4325 C.ar    1  UNL1       -0.0027
     19 C          63.2598   86.3117   12.4446 C.ar    1  UNL1       -0.0002
     20 C          62.3835   85.4075   11.6295 C.ar    1  UNL1        0.0021
     21 C          61.2734   85.9849   10.8023 C.ar    1  UNL1       -0.0002
     22 C          61.0396   87.4665   10.7902 C.ar    1  UNL1       -0.0027
     23 C          62.6172   83.9258   11.6416 C.ar    1  UNL1        0.0276
     24 C          62.1733   83.1061   12.8167 C.ar    1  UNL1        0.0045
     25 C          62.4071   81.6244   12.8288 C.ar    1  UNL1        0.0298
     26 C          63.0848   80.9625   11.6657 C.ar    1  UNL1        0.1424
     27 F          63.3186   79.4810   11.6778 F       1  UNL1       -0.2041
     28 C          63.5288   81.7824   10.4906 C.ar    1  UNL1        0.0592
     29 C          63.2950   83.2640   10.4785 C.ar    1  UNL1        0.1423
     30 F          63.7389   84.0838    9.3034 F       1  UNL1       -0.2041
     31 C          66.1399   93.2717   12.7240 C.3     1  UNL1        0.0471
     32 C          66.5530   92.4819   13.9304 C.3     1  UNL1        0.0357
     33 C          67.9836   92.0640   14.0994 C.3     1  UNL1        0.1373
     34 O          68.7914   91.6538   12.9039 O.3     1  UNL1       -0.3820
     35 H          68.4261   90.8357   12.5322 H       1  UNL1        0.2104
@<TRIPOS>BOND
     1    16    15    1
     2    16    17    1
     3    17    18   ar
     4    18    19   ar
     5    19    20   ar
     6    20    23    1
     7    23    24   ar
     8    24    25   ar
     9    25    26   ar
    10    26    27    1
    11    26    28   ar
    12    28    29   ar
    13    29    30    1
    14    20    21   ar
    15    21    22   ar
    16    16     1    1
    17     1     2    1
    18     2     3    1
    19     3     4    1
    20     4    31    1
    21    31    32    1
    22    32    33    1
    23    33    34    1
    24     4     8    1
    25     8     9   ar
    26     9    10   ar
    27    10    11   ar
    28    11    12    1
    29    11    13   ar
    30    13    14   ar
    31     4     5    1
    32     5     6    1
    33     6     7    2
    34    22    17   ar
    35     6     1   am
    36    29    23   ar
    37    14     8   ar
    38    34    35    1
@<TRIPOS>MOLECULE
*****
 35 38 0 0 0
SMALL
GASTEIGER

@<TRIPOS>ATOM
      1 N          63.3140   90.3514   12.0034 N.am    1  UNL1       -0.2438
      2 C          64.0436   90.2505   13.3101 C.3     1  UNL1        0.1009
      3 C          65.2454   91.1107   13.5664 C.3     1  UNL1        0.0661
      4 C          65.7177   92.0717   12.5160 C.3     1  UNL1        0.1578
      5 O          64.9882   92.1726   11.2092 O.3     1  UNL1       -0.4375
      6 C          63.7863   91.3124   10.9529 C.2     1  UNL1        0.4051
      7 O          63.0568   91.4133    9.6462 O.2     1  UNL1       -0.2262
      8 C          66.7339   92.3365   13.5872 C.ar    1  UNL1        0.0139
      9 C          68.1687   91.9569   13.3701 C.ar    1  UNL1        0.0014
     10 C          69.1849   92.2218   14.4413 C.ar    1  UNL1        0.0294
     11 C          68.7661   92.8662   15.7294 C.ar    1  UNL1        0.1401
     12 F          69.7823   93.1311   16.8006 F       1  UNL1       -0.2042
     13 C          67.3313   93.2458   15.9465 C.ar    1  UNL1        0.0294
     14 C          66.3151   92.9810   14.8753 C.ar    1  UNL1        0.0014
     15 C          60.7738   90.1247   11.5078 C.3     1  UNL1        0.0265
     16 C          62.1122   89.4912   11.7470 C.3     1  UNL1        0.1011
     17 C          62.2488   87.9975   11.7300 C.ar    1  UNL1       -0.0042
     18 C          61.4294   87.1803   10.7757 C.ar    1  UNL1       -0.0027
     19 C          61.5661   85.6867   10.7587 C.ar    1  UNL1       -0.0002
     20 C          62.5221   85.0102   11.6959 C.ar    1  UNL1        0.0021
     21 C          63.3415   85.8275   12.6502 C.ar    1  UNL1       -0.0002
     22 C          63.2049   87.3211   12.6672 C.ar    1  UNL1       -0.0027
     23 C          62.6588   83.5165   11.6788 C.ar    1  UNL1        0.0276
     24 C          62.1980   82.7078   12.8551 C.ar    1  UNL1        0.0045
     25 C          62.3347   81.2140   12.8380 C.ar    1  UNL1        0.0298
     26 C          62.9321   80.5292   11.6447 C.ar    1  UNL1        0.1424
     27 F          63.0687   79.0355   11.6275 F       1  UNL1       -0.2041
     28 C          63.3928   81.3380   10.4684 C.ar    1  UNL1        0.0592
     29 C          63.2562   82.8317   10.4855 C.ar    1  UNL1        0.1423
     30 F          63.7169   83.6405    9.3092 F       1  UNL1       -0.2041
     31 C          66.5430   93.1247   11.8376 C.3     1  UNL1        0.0471
     32 C          66.7768   93.0563   10.3576 C.3     1  UNL1        0.0357
     33 C          68.0469   92.4615    9.8256 C.3     1  UNL1        0.1373
     34 O          69.3010   93.2835    9.7860 O.3     1  UNL1       -0.3820
     35 H          69.1887   94.0145    9.1583 H       1  UNL1        0.2104
@<TRIPOS>BOND
     1    16    15    1
     2    16    17    1
     3    17    18   ar
     4    18    19   ar
     5    19    20   ar
     6    20    23    1
     7    23    24   ar
     8    24    25   ar
     9    25    26   ar
    10    26    27    1
    11    26    28   ar
    12    28    29   ar
    13    29    30    1
    14    20    21   ar
    15    21    22   ar
    16    16     1    1
    17     1     2    1
    18     2     3    1
    19     3     4    1
    20     4    31    1
    21    31    32    1
    22    32    33    1
    23    33    34    1
    24     4     8    1
    25     8     9   ar
    26     9    10   ar
    27    10    11   ar
    28    11    12    1
    29    11    13   ar
    30    13    14   ar
    31     4     5    1
    32     5     6    1
    33     6     7    2
    34    22    17   ar
    35     6     1   am
    36    29    23   ar
    37    14     8   ar
    38    34    35    1
@<TRIPOS>MOLECULE
*****
 35 38 0 0 0
SMALL
GASTEIGER

@<TRIPOS>ATOM
      1 N          62.5988   87.9177   12.5042 N.am    1  UNL1       -0.2438
      2 C          62.1835   86.8906   11.4930 C.3     1  UNL1        0.1009
      3 C          62.6803   85.4800   11.6092 C.3     1  UNL1        0.0661
      4 C          63.5923   85.0965   12.7366 C.3     1  UNL1        0.1578
      5 O          64.0077   86.1237   13.7479 O.3     1  UNL1       -0.4375
      6 C          63.5109   87.5342   13.6317 C.2     1  UNL1        0.4051
      7 O          63.9262   88.5613   14.6429 O.2     1  UNL1       -0.2262
      8 C          63.4803   83.7771   12.0320 C.ar    1  UNL1        0.0139
      9 C          64.2607   83.5294   10.7752 C.ar    1  UNL1        0.0014
     10 C          64.1486   82.2099   10.0705 C.ar    1  UNL1        0.0294
     11 C          63.2562   81.1382   10.6227 C.ar    1  UNL1        0.1401
     12 F          63.1441   79.8188    9.9181 F       1  UNL1       -0.2042
     13 C          62.4758   81.3859   11.8796 C.ar    1  UNL1        0.0294
     14 C          62.5878   82.7054   12.5842 C.ar    1  UNL1        0.0014
     15 C          60.6961   89.6637   12.7889 C.3     1  UNL1        0.0265
     16 C          62.1020   89.3282   12.3880 C.3     1  UNL1        0.1011
     17 C          63.0113   90.4034   11.8708 C.ar    1  UNL1       -0.0042
     18 C          64.0286   91.0268   12.7799 C.ar    1  UNL1       -0.0027
     19 C          64.9378   92.1018   12.2628 C.ar    1  UNL1       -0.0002
     20 C          64.8297   92.5536   10.8365 C.ar    1  UNL1        0.0021
     21 C          63.8124   91.9302    9.9274 C.ar    1  UNL1       -0.0002
     22 C          62.9032   90.8551   10.4446 C.ar    1  UNL1       -0.0027
     23 C          65.7389   93.6287   10.3193 C.ar    1  UNL1        0.0276
     24 C          65.3204   95.0670   10.3981 C.ar    1  UNL1        0.0045
     25 C          66.2297   96.1421    9.8810 C.ar    1  UNL1        0.0298
     26 C          67.5574   95.7789    9.2851 C.ar    1  UNL1        0.1424
     27 F          68.4667   96.8540    8.7679 F       1  UNL1       -0.2041
     28 C          67.9759   94.3406    9.2063 C.ar    1  UNL1        0.0592
     29 C          67.0667   93.2656    9.7234 C.ar    1  UNL1        0.1423
     30 F          67.4852   91.8272    9.6447 F       1  UNL1       -0.2041
     31 C          64.4655   84.2548   13.6194 C.3     1  UNL1        0.0471
     32 C          64.2764   84.2823   15.1071 C.3     1  UNL1        0.0357
     33 C          62.9129   84.0664   15.6940 C.3     1  UNL1        0.1373
     34 O          61.9106   85.1824   15.6925 O.3     1  UNL1       -0.3820
     35 H          62.2232   85.8985   16.2672 H       1  UNL1        0.2104
@<TRIPOS>BOND
     1    16    15    1
     2    16    17    1
     3    17    18   ar
     4    18    19   ar
     5    19    20   ar
     6    20    23    1
     7    23    24   ar
     8    24    25   ar
     9    25    26   ar
    10    26    27    1
    11    26    28   ar
    12    28    29   ar
    13    29    30    1
    14    20    21   ar
    15    21    22   ar
    16    16     1    1
    17     1     2    1
    18     2     3    1
    19     3     4    1
    20     4    31    1
    21    31    32    1
    22    32    33    1
    23    33    34    1
    24     4     8    1
    25     8     9   ar
    26     9    10   ar
    27    10    11   ar
    28    11    12    1
    29    11    13   ar
    30    13    14   ar
    31     4     5    1
    32     5     6    1
    33     6     7    2
    34    22    17   ar
    35     6     1   am
    36    29    23   ar
    37    14     8   ar
    38    34    35    1
@<TRIPOS>MOLECULE
*****
 35 38 0 0 0
SMALL
GASTEIGER

@<TRIPOS>ATOM
      1 N          64.4576   90.4939   14.6192 N.am    1  UNL1       -0.2438
      2 C          64.7003   90.5492   13.1401 C.3     1  UNL1        0.1009
      3 C          65.4491   91.7051   12.5457 C.3     1  UNL1        0.0661
      4 C          65.9550   92.8056   13.4304 C.3     1  UNL1        0.1578
      5 O          65.7123   92.7503   14.9096 O.3     1  UNL1       -0.4375
      6 C          64.9635   91.5944   15.5041 C.2     1  UNL1        0.4051
      7 O          64.7207   91.5391   16.9832 O.2     1  UNL1       -0.2262
      8 C          66.4310   93.3032   12.0977 C.ar    1  UNL1        0.0139
      9 C          67.1860   92.3869   11.1811 C.ar    1  UNL1        0.0014
     10 C          67.6619   92.8845    9.8484 C.ar    1  UNL1        0.0294
     11 C          67.3827   94.2983    9.4325 C.ar    1  UNL1        0.1401
     12 F          67.8587   94.7959    8.0998 F       1  UNL1       -0.2042
     13 C          66.6277   95.2147   10.3492 C.ar    1  UNL1        0.0294
     14 C          66.1518   94.7171   11.6818 C.ar    1  UNL1        0.0014
     15 C          63.0308   89.4877   16.5432 C.3     1  UNL1        0.0265
     16 C          63.7088   89.3380   15.2137 C.3     1  UNL1        0.1011
     17 C          63.6381   88.0324   14.4784 C.ar    1  UNL1       -0.0042
     18 C          63.1349   87.9934   13.0660 C.ar    1  UNL1       -0.0027
     19 C          63.0642   86.6878   12.3308 C.ar    1  UNL1       -0.0002
     20 C          63.4968   85.4213   13.0081 C.ar    1  UNL1        0.0021
     21 C          64.0001   85.4603   14.4206 C.ar    1  UNL1       -0.0002
     22 C          64.0708   86.7659   15.1558 C.ar    1  UNL1       -0.0027
     23 C          63.4261   84.1157   12.2729 C.ar    1  UNL1        0.0276
     24 C          64.0712   83.9777   10.9258 C.ar    1  UNL1        0.0045
     25 C          64.0006   82.6721   10.1906 C.ar    1  UNL1        0.0298
     26 C          63.2848   81.5045   10.8025 C.ar    1  UNL1        0.1424
     27 F          63.2141   80.1990   10.0674 F       1  UNL1       -0.2041
     28 C          62.6396   81.6426   12.1497 C.ar    1  UNL1        0.0592
     29 C          62.7103   82.9482   12.8849 C.ar    1  UNL1        0.1423
     30 F          62.0652   83.0862   14.2320 F       1  UNL1       -0.2041
     31 C          66.6263   94.0790   13.8524 C.3     1  UNL1        0.0471
     32 C          67.6155   94.0674   14.9798 C.3     1  UNL1        0.0357
     33 C          68.5317   92.8937   15.1617 C.3     1  UNL1        0.1373
     34 O          69.3383   92.3854   14.0037 O.3     1  UNL1       -0.3820
     35 H          68.7428   92.0235   13.3290 H       1  UNL1        0.2104
@<TRIPOS>BOND
     1    16    15    1
     2    16    17    1
     3    17    18   ar
     4    18    19   ar
     5    19    20   ar
     6    20    23    1
     7    23    24   ar
     8    24    25   ar
     9    25    26   ar
    10    26    27    1
    11    26    28   ar
    12    28    29   ar
    13    29    30    1
    14    20    21   ar
    15    21    22   ar
    16    16     1    1
    17     1     2    1
    18     2     3    1
    19     3     4    1
    20     4    31    1
    21    31    32    1
    22    32    33    1
    23    33    34    1
    24     4     8    1
    25     8     9   ar
    26     9    10   ar
    27    10    11   ar
    28    11    12    1
    29    11    13   ar
    30    13    14   ar
    31     4     5    1
    32     5     6    1
    33     6     7    2
    34    22    17   ar
    35     6     1   am
    36    29    23   ar
    37    14     8   ar
    38    34    35    1
@<TRIPOS>MOLECULE
*****
 35 38 0 0 0
SMALL
GASTEIGER

@<TRIPOS>ATOM
      1 N          62.0755   88.2021   11.1768 N.am    1  UNL1       -0.2438
      2 C          61.5889   88.2137    9.7579 C.3     1  UNL1        0.1009
      3 C          61.7726   87.0026    8.8922 C.3     1  UNL1        0.0661
      4 C          62.4428   85.7800    9.4452 C.3     1  UNL1        0.1578
      5 O          62.9294   85.7684   10.8641 O.3     1  UNL1       -0.4375
      6 C          62.7457   86.9794   11.7299 C.2     1  UNL1        0.4051
      7 O          63.2322   86.9679   13.1487 O.2     1  UNL1       -0.2262
      8 C          62.1542   85.3103    8.0502 C.ar    1  UNL1        0.0139
      9 C          63.2715   84.8193    7.1780 C.ar    1  UNL1        0.0014
     10 C          62.9829   84.3496    5.7829 C.ar    1  UNL1        0.0294
     11 C          61.5771   84.3709    5.2602 C.ar    1  UNL1        0.1401
     12 F          61.2885   83.9011    3.8651 F       1  UNL1       -0.2042
     13 C          60.4599   84.8618    6.1324 C.ar    1  UNL1        0.0294
     14 C          60.7484   85.3315    7.5275 C.ar    1  UNL1        0.0014
     15 C          60.5161   89.9587   12.2871 C.3     1  UNL1        0.0265
     16 C          61.8918   89.4132   12.0425 C.3     1  UNL1        0.1011
     17 C          63.0839   90.0789   12.6637 C.ar    1  UNL1       -0.0042
     18 C          63.5389   89.6747   14.0347 C.ar    1  UNL1       -0.0027
     19 C          64.7309   90.3403   14.6559 C.ar    1  UNL1       -0.0002
     20 C          65.4680   91.4101   13.9060 C.ar    1  UNL1        0.0021
     21 C          65.0130   91.8143   12.5351 C.ar    1  UNL1       -0.0002
     22 C          63.8210   91.1487   11.9139 C.ar    1  UNL1       -0.0027
     23 C          66.6602   92.0758   14.5273 C.ar    1  UNL1        0.0276
     24 C          66.5252   92.7760   15.8469 C.ar    1  UNL1        0.0045
     25 C          67.7174   93.4416   16.4681 C.ar    1  UNL1        0.0298
     26 C          69.0444   93.4070   15.7696 C.ar    1  UNL1        0.1424
     27 F          70.2364   94.0726   16.3908 F       1  UNL1       -0.2041
     28 C          69.1792   92.7067   14.4499 C.ar    1  UNL1        0.0592
     29 C          67.9872   92.0411   13.8288 C.ar    1  UNL1        0.1423
     30 F          68.1220   91.3408   12.5091 F       1  UNL1       -0.2041
     31 C          63.0128   84.3942    9.5138 C.3     1  UNL1        0.0471
     32 C          63.2906   83.7625   10.8457 C.3     1  UNL1        0.0357
     33 C          64.0548   82.4739   10.9198 C.3     1  UNL1        0.1373
     34 O          65.2074   82.3392   11.8703 O.3     1  UNL1       -0.3820
     35 H          65.9220   82.9363   11.5987 H       1  UNL1        0.2104
@<TRIPOS>BOND
     1    16    15    1
     2    16    17    1
     3    17    18   ar
     4    18    19   ar
     5    19    20   ar
     6    20    23    1
     7    23    24   ar
     8    24    25   ar
     9    25    26   ar
    10    26    27    1
    11    26    28   ar
    12    28    29   ar
    13    29    30    1
    14    20    21   ar
    15    21    22   ar
    16    16     1    1
    17     1     2    1
    18     2     3    1
    19     3     4    1
    20     4    31    1
    21    31    32    1
    22    32    33    1
    23    33    34    1
    24     4     8    1
    25     8     9   ar
    26     9    10   ar
    27    10    11   ar
    28    11    12    1
    29    11    13   ar
    30    13    14   ar
    31     4     5    1
    32     5     6    1
    33     6     7    2
    34    22    17   ar
    35     6     1   am
    36    29    23   ar
    37    14     8   ar
    38    34    35    1
@<TRIPOS>MOLECULE
*****
 35 38 0 0 0
SMALL
GASTEIGER

@<TRIPOS>ATOM
      1 N          45.3227   76.1597   18.2808 N.am    1  UNL1       -0.2438
      2 C          44.3089   77.0794   17.6675 C.3     1  UNL1        0.1009
      3 C          44.6859   78.4907   17.3264 C.3     1  UNL1        0.0661
      4 C          46.0766   78.9822   17.5987 C.3     1  UNL1        0.1578
      5 O          47.0905   78.0624   18.2120 O.3     1  UNL1       -0.4375
      6 C          46.7136   76.6512   18.5531 C.2     1  UNL1        0.4051
      7 O          47.7274   75.7315   19.1664 O.2     1  UNL1       -0.2262
      8 C          45.4729   80.2222   17.0087 C.ar    1  UNL1        0.0139
      9 C          44.3580   80.9266   17.7233 C.ar    1  UNL1        0.0014
     10 C          43.7544   82.1667   17.1334 C.ar    1  UNL1        0.0294
     11 C          44.2657   82.7021   15.8289 C.ar    1  UNL1        0.1401
     12 F          43.6620   83.9422   15.2389 F       1  UNL1       -0.2042
     13 C          45.3806   81.9977   15.1142 C.ar    1  UNL1        0.0294
     14 C          45.9843   80.7577   15.7042 C.ar    1  UNL1        0.0014
     15 C          44.5531   74.3955   20.0258 C.3     1  UNL1        0.0265
     16 C          44.9458   74.7485   18.6218 C.3     1  UNL1        0.1011
     17 C          44.9616   73.6902   17.5589 C.ar    1  UNL1       -0.0042
     18 C          45.4689   74.0146   16.1851 C.ar    1  UNL1       -0.0027
     19 C          45.4847   72.9563   15.1222 C.ar    1  UNL1       -0.0002
     20 C          44.9932   71.5736   15.4331 C.ar    1  UNL1        0.0021
     21 C          44.4860   71.2492   16.8069 C.ar    1  UNL1       -0.0002
     22 C          44.4702   72.3075   17.8698 C.ar    1  UNL1       -0.0027
     23 C          45.0090   70.5153   14.3701 C.ar    1  UNL1        0.0276
     24 C          43.9147   70.4650   13.3455 C.ar    1  UNL1        0.0045
     25 C          43.9305   69.4067   12.2826 C.ar    1  UNL1        0.0298
     26 C          45.0407   68.3988   12.2442 C.ar    1  UNL1        0.1424
     27 F          45.0566   67.3406   11.1813 F       1  UNL1       -0.2041
     28 C          46.1351   68.4492   13.2689 C.ar    1  UNL1        0.0592
     29 C          46.1193   69.5074   14.3318 C.ar    1  UNL1        0.1423
     30 F          47.2137   69.5578   15.3564 F       1  UNL1       -0.2041
     31 C          47.2578   79.9044   17.6661 C.3     1  UNL1        0.0471
     32 C          47.8349   80.2879   18.9964 C.3     1  UNL1        0.0357
     33 C          47.1963   81.3782   19.8047 C.3     1  UNL1        0.1373
     34 O          47.3178   82.8071   19.3649 O.3     1  UNL1       -0.3820
     35 H          48.2454   83.0851   19.4215 H       1  UNL1        0.2104
@<TRIPOS>BOND
     1    16    15    1
     2    16    17    1
     3    17    18   ar
     4    18    19   ar
     5    19    20   ar
     6    20    23    1
     7    23    24   ar
     8    24    25   ar
     9    25    26   ar
    10    26    27    1
    11    26    28   ar
    12    28    29   ar
    13    29    30    1
    14    20    21   ar
    15    21    22   ar
    16    16     1    1
    17     1     2    1
    18     2     3    1
    19     3     4    1
    20     4    31    1
    21    31    32    1
    22    32    33    1
    23    33    34    1
    24     4     8    1
    25     8     9   ar
    26     9    10   ar
    27    10    11   ar
    28    11    12    1
    29    11    13   ar
    30    13    14   ar
    31     4     5    1
    32     5     6    1
    33     6     7    2
    34    22    17   ar
    35     6     1   am
    36    29    23   ar
    37    14     8   ar
    38    34    35    1
@<TRIPOS>MOLECULE
*****
 35 38 0 0 0
SMALL
GASTEIGER

@<TRIPOS>ATOM
      1 N          62.2624   87.7756   11.4718 N.am    1  UNL1       -0.2438
      2 C          62.3157   86.6077   12.4116 C.3     1  UNL1        0.1009
      3 C          62.4921   85.2190   11.8729 C.3     1  UNL1        0.0661
      4 C          62.6153   84.9981   10.3944 C.3     1  UNL1        0.1578
      5 O          62.5619   86.1659    9.4545 O.3     1  UNL1       -0.4375
      6 C          62.3855   87.5547    9.9932 C.2     1  UNL1        0.4051
      7 O          62.3322   88.7225    9.0534 O.2     1  UNL1       -0.2262
      8 C          62.7245   83.5827   10.8792 C.ar    1  UNL1        0.0139
      9 C          63.3603   82.5390   10.0095 C.ar    1  UNL1        0.0014
     10 C          63.4696   81.1237   10.4943 C.ar    1  UNL1        0.0294
     11 C          62.9430   80.7522   11.8488 C.ar    1  UNL1        0.1401
     12 F          63.0523   79.3369   12.3337 F       1  UNL1       -0.2042
     13 C          62.3072   81.7959   12.7186 C.ar    1  UNL1        0.0294
     14 C          62.1979   83.2112   12.2337 C.ar    1  UNL1        0.0014
     15 C          60.7503   89.8407   11.9179 C.3     1  UNL1        0.0265
     16 C          62.0860   89.1644   12.0105 C.3     1  UNL1        0.1011
     17 C          63.2453   89.8768   12.6418 C.ar    1  UNL1       -0.0042
     18 C          63.8107   91.1073   11.9969 C.ar    1  UNL1       -0.0027
     19 C          64.9700   91.8197   12.6282 C.ar    1  UNL1       -0.0002
     20 C          65.5637   91.3016   13.9045 C.ar    1  UNL1        0.0021
     21 C          64.9983   90.0711   14.5495 C.ar    1  UNL1       -0.0002
     22 C          63.8390   89.3587   13.9182 C.ar    1  UNL1       -0.0027
     23 C          66.7230   92.0140   14.5358 C.ar    1  UNL1        0.0276
     24 C          68.0560   92.0333   13.8484 C.ar    1  UNL1        0.0045
     25 C          69.2153   92.7457   14.4797 C.ar    1  UNL1        0.0298
     26 C          69.0415   93.4389   15.7985 C.ar    1  UNL1        0.1424
     27 F          70.2008   94.1514   16.4298 F       1  UNL1       -0.2041
     28 C          67.7085   93.4197   16.4860 C.ar    1  UNL1        0.0592
     29 C          66.5492   92.7072   15.8547 C.ar    1  UNL1        0.1423
     30 F          65.2161   92.6880   16.5421 F       1  UNL1       -0.2041
     31 C          62.7763   84.2856    9.0842 C.3     1  UNL1        0.0471
     32 C          62.8867   85.0718    7.8116 C.3     1  UNL1        0.0357
     33 C          62.3504   84.5046    6.5307 C.3     1  UNL1        0.1373
     34 O          60.8726   84.4985    6.2739 O.3     1  UNL1       -0.3820
     35 H          60.4367   83.9079    6.9080 H       1  UNL1        0.2104
@<TRIPOS>BOND
     1    16    15    1
     2    16    17    1
     3    17    18   ar
     4    18    19   ar
     5    19    20   ar
     6    20    23    1
     7    23    24   ar
     8    24    25   ar
     9    25    26   ar
    10    26    27    1
    11    26    28   ar
    12    28    29   ar
    13    29    30    1
    14    20    21   ar
    15    21    22   ar
    16    16     1    1
    17     1     2    1
    18     2     3    1
    19     3     4    1
    20     4    31    1
    21    31    32    1
    22    32    33    1
    23    33    34    1
    24     4     8    1
    25     8     9   ar
    26     9    10   ar
    27    10    11   ar
    28    11    12    1
    29    11    13   ar
    30    13    14   ar
    31     4     5    1
    32     5     6    1
    33     6     7    2
    34    22    17   ar
    35     6     1   am
    36    29    23   ar
    37    14     8   ar
    38    34    35    1
