@<TRIPOS>MOLECULE
*****
 24 26 0 0 0
SMALL
GASTEIGER

@<TRIPOS>ATOM
      1 C          61.4024   87.2377   10.5401 C.3     1  UNL1        0.1612
      2 C          61.5226   86.4517    9.2681 C.ar    1  UNL1        0.0171
      3 C          62.8241   85.7972    8.9110 C.ar    1  UNL1       -0.0002
      4 C          62.9444   85.0113    7.6391 C.ar    1  UNL1        0.0112
      5 C          61.7629   84.8799    6.7241 C.ar    1  UNL1        0.0585
      6 CL         61.8831   84.0940    5.4522 Cl      1  UNL1       -0.0822
      7 C          60.4614   85.5344    7.0812 C.ar    1  UNL1        0.0225
      8 C          60.3412   86.3204    8.3532 C.ar    1  UNL1        0.0568
      9 CL         59.0396   86.9749    8.7102 Cl      1  UNL1       -0.0825
     10 O          61.4991   86.5403   11.8646 O.3     1  UNL1       -0.3451
     11 C          62.7494   85.7973   12.2315 C.3     1  UNL1        0.1690
     12 CL         62.4796   79.9616   13.5995 Cl      1  UNL1       -0.0822
     13 C          62.5471   81.4205   13.2575 C.ar    1  UNL1        0.0577
     14 C          62.3680   82.4518   14.3319 C.ar    1  UNL1        0.0111
     15 C          62.4354   83.9107   13.9899 C.ar    1  UNL1       -0.0010
     16 C          62.6820   84.3384   12.5735 C.ar    1  UNL1        0.0073
     17 C          62.8611   83.3072   11.4991 C.ar    1  UNL1       -0.0010
     18 C          62.7936   81.8482   11.8411 C.ar    1  UNL1        0.0111
     19 C          61.1856   88.7210   10.4876 C.3     1  UNL1        0.1416
     20 N          62.2426   89.6522   11.0028 N.ar    1  UNL1       -0.3050
     21 C          62.8096   89.6604   12.3915 C.ar    1  UNL1        0.0981
     22 C          63.8357   90.7520   12.4668 C.ar    1  UNL1        0.1193
     23 N          63.9028   91.4184   11.1247 N.ar    1  UNL1       -0.2223
     24 C          62.9182   90.7387   10.2199 C.ar    1  UNL1        0.1787
@<TRIPOS>BOND
     1    12    13    1
     2    13    14   ar
     3    14    15   ar
     4    15    16   ar
     5    16    11    1
     6    11    10    1
     7    10     1    1
     8     1    19    1
     9    19    20    1
    10    20    21   ar
    11    21    22   ar
    12    22    23   ar
    13    23    24   ar
    14     1     2    1
    15     2     3   ar
    16     3     4   ar
    17     4     5   ar
    18     5     6    1
    19     5     7   ar
    20     7     8   ar
    21     8     9    1
    22    16    17   ar
    23    17    18   ar
    24    18    13   ar
    25    24    20   ar
    26     8     2   ar
@<TRIPOS>MOLECULE
*****
 24 26 0 0 0
SMALL
GASTEIGER

@<TRIPOS>ATOM
      1 C          63.4643   85.2729   13.2538 C.3     1  UNL1        0.1612
      2 C          63.1352   83.8094   13.2567 C.ar    1  UNL1        0.0171
      3 C          62.2710   83.2372   14.3409 C.ar    1  UNL1       -0.0002
      4 C          61.9419   81.7738   14.3437 C.ar    1  UNL1        0.0112
      5 C          62.4771   80.8825   13.2624 C.ar    1  UNL1        0.0585
      6 CL         62.1480   79.4191   13.2652 Cl      1  UNL1       -0.0822
      7 C          63.3414   81.4548   12.1781 C.ar    1  UNL1        0.0225
      8 C          63.6704   82.9183   12.1753 C.ar    1  UNL1        0.0568
      9 CL         64.5347   83.4905   11.0911 Cl      1  UNL1       -0.0825
     10 O          62.8722   86.1728   12.2099 O.3     1  UNL1       -0.3451
     11 C          61.6557   85.7382   11.4476 C.3     1  UNL1        0.1690
     12 CL         59.4145   89.2421    7.1233 Cl      1  UNL1       -0.0822
     13 C          59.9748   88.3661    8.2044 C.ar    1  UNL1        0.0577
     14 C          60.2673   88.9405    9.5589 C.ar    1  UNL1        0.0111
     15 C          60.8276   88.0645   10.6399 C.ar    1  UNL1       -0.0010
     16 C          61.0954   86.6142   10.3666 C.ar    1  UNL1        0.0073
     17 C          60.8029   86.0398    9.0121 C.ar    1  UNL1       -0.0010
     18 C          60.2426   86.9158    7.9311 C.ar    1  UNL1        0.0111
     19 C          64.3855   85.8366   14.2949 C.3     1  UNL1        0.1416
     20 N          63.8242   86.5890   15.4648 N.ar    1  UNL1       -0.3050
     21 C          63.2783   85.9824   16.7234 C.ar    1  UNL1        0.0981
     22 C          62.8269   87.0986   17.6181 C.ar    1  UNL1        0.1193
     23 N          63.0938   88.3951   16.9124 N.ar    1  UNL1       -0.2223
     24 C          63.7101   88.0801   15.5816 C.ar    1  UNL1        0.1787
@<TRIPOS>BOND
     1    12    13    1
     2    13    14   ar
     3    14    15   ar
     4    15    16   ar
     5    16    11    1
     6    11    10    1
     7    10     1    1
     8     1    19    1
     9    19    20    1
    10    20    21   ar
    11    21    22   ar
    12    22    23   ar
    13    23    24   ar
    14     1     2    1
    15     2     3   ar
    16     3     4   ar
    17     4     5   ar
    18     5     6    1
    19     5     7   ar
    20     7     8   ar
    21     8     9    1
    22    16    17   ar
    23    17    18   ar
    24    18    13   ar
    25    24    20   ar
    26     8     2   ar
@<TRIPOS>MOLECULE
*****
 24 26 0 0 0
SMALL
GASTEIGER

@<TRIPOS>ATOM
      1 C          63.5797   85.6220   13.3652 C.3     1  UNL1        0.1612
      2 C          63.2658   84.1552   13.3567 C.ar    1  UNL1        0.0171
      3 C          63.8485   83.2697   12.2954 C.ar    1  UNL1       -0.0002
      4 C          63.5346   81.8029   12.2868 C.ar    1  UNL1        0.0112
      5 C          62.6381   81.2216   13.3396 C.ar    1  UNL1        0.0585
      6 CL         62.3242   79.7549   13.3310 Cl      1  UNL1       -0.0822
      7 C          62.0554   82.1071   14.4009 C.ar    1  UNL1        0.0225
      8 C          62.3693   83.5739   14.4095 C.ar    1  UNL1        0.0568
      9 CL         61.7866   84.4594   15.4708 Cl      1  UNL1       -0.0825
     10 O          63.0274   86.5134   12.2927 O.3     1  UNL1       -0.3451
     11 C          61.7742   86.1245   11.5660 C.3     1  UNL1        0.1690
     12 CL         62.0022   84.7022    5.7415 Cl      1  UNL1       -0.0822
     13 C          61.9452   85.0578    7.1976 C.ar    1  UNL1        0.0577
     14 C          63.0612   84.6505    8.1134 C.ar    1  UNL1        0.0111
     15 C          63.0042   85.0060    9.5695 C.ar    1  UNL1       -0.0010
     16 C          61.8312   85.7689   10.1099 C.ar    1  UNL1        0.0073
     17 C          60.7152   86.1763    9.1941 C.ar    1  UNL1       -0.0010
     18 C          60.7722   85.8207    7.7380 C.ar    1  UNL1        0.0111
     19 C          64.4459   86.1973   14.4463 C.3     1  UNL1        0.1416
     20 N          64.0466   87.4721   15.1285 N.ar    1  UNL1       -0.3050
     21 C          64.2614   88.8595   14.6004 C.ar    1  UNL1        0.0981
     22 C          63.7099   89.8282   15.6041 C.ar    1  UNL1        0.1193
     23 N          63.1541   89.0394   16.7526 N.ar    1  UNL1       -0.2223
     24 C          63.3622   87.5833   16.4587 C.ar    1  UNL1        0.1787
@<TRIPOS>BOND
     1    12    13    1
     2    13    14   ar
     3    14    15   ar
     4    15    16   ar
     5    16    11    1
     6    11    10    1
     7    10     1    1
     8     1    19    1
     9    19    20    1
    10    20    21   ar
    11    21    22   ar
    12    22    23   ar
    13    23    24   ar
    14     1     2    1
    15     2     3   ar
    16     3     4   ar
    17     4     5   ar
    18     5     6    1
    19     5     7   ar
    20     7     8   ar
    21     8     9    1
    22    16    17   ar
    23    17    18   ar
    24    18    13   ar
    25    24    20   ar
    26     8     2   ar
@<TRIPOS>MOLECULE
*****
 24 26 0 0 0
SMALL
GASTEIGER

@<TRIPOS>ATOM
      1 C          62.0008   86.9856   10.4484 C.3     1  UNL1        0.1612
      2 C          61.8958   86.2403    9.1508 C.ar    1  UNL1        0.0171
      3 C          63.0670   85.4541    8.6406 C.ar    1  UNL1       -0.0002
      4 C          62.9621   84.7088    7.3431 C.ar    1  UNL1        0.0112
      5 C          61.6860   84.7497    6.5557 C.ar    1  UNL1        0.0585
      6 CL         61.5811   84.0045    5.2582 Cl      1  UNL1       -0.0822
      7 C          60.5148   85.5360    7.0659 C.ar    1  UNL1        0.0225
      8 C          60.6198   86.2813    8.3634 C.ar    1  UNL1        0.0568
      9 CL         59.4486   87.0675    8.8736 Cl      1  UNL1       -0.0825
     10 O          62.4088   88.4290   10.4533 O.3     1  UNL1       -0.3451
     11 C          62.1062   89.2899   11.6437 C.3     1  UNL1        0.1690
     12 CL         66.5857   91.7996   14.7478 Cl      1  UNL1       -0.0822
     13 C          65.4658   91.1722   13.9718 C.ar    1  UNL1        0.0577
     14 C          64.9665   91.8234   12.7161 C.ar    1  UNL1        0.0111
     15 C          63.8466   91.1959   11.9401 C.ar    1  UNL1       -0.0010
     16 C          63.2261   89.9173   12.4197 C.ar    1  UNL1        0.0073
     17 C          63.7254   89.2662   13.6754 C.ar    1  UNL1       -0.0010
     18 C          64.8453   89.8936   14.4514 C.ar    1  UNL1        0.0111
     19 C          61.6977   86.2874   11.7409 C.3     1  UNL1        0.1416
     20 N          62.6327   85.2373   12.2633 N.ar    1  UNL1       -0.3050
     21 C          63.6192   85.4116   13.3797 C.ar    1  UNL1        0.0981
     22 C          64.3416   84.1104   13.5674 C.ar    1  UNL1        0.1193
     23 N          63.8016   83.1320   12.5670 N.ar    1  UNL1       -0.2223
     24 C          62.7454   83.8284   11.7610 C.ar    1  UNL1        0.1787
@<TRIPOS>BOND
     1    12    13    1
     2    13    14   ar
     3    14    15   ar
     4    15    16   ar
     5    16    11    1
     6    11    10    1
     7    10     1    1
     8     1    19    1
     9    19    20    1
    10    20    21   ar
    11    21    22   ar
    12    22    23   ar
    13    23    24   ar
    14     1     2    1
    15     2     3   ar
    16     3     4   ar
    17     4     5   ar
    18     5     6    1
    19     5     7   ar
    20     7     8   ar
    21     8     9    1
    22    16    17   ar
    23    17    18   ar
    24    18    13   ar
    25    24    20   ar
    26     8     2   ar
@<TRIPOS>MOLECULE
*****
 24 26 0 0 0
SMALL
GASTEIGER

@<TRIPOS>ATOM
      1 C          62.2970   87.0873   11.1439 C.3     1  UNL1        0.1612
      2 C          62.6867   85.7913   11.7911 C.ar    1  UNL1        0.0171
      3 C          62.2836   84.4893   11.1648 C.ar    1  UNL1       -0.0002
      4 C          62.6732   83.1934   11.8120 C.ar    1  UNL1        0.0112
      5 C          63.4660   83.1995   13.0854 C.ar    1  UNL1        0.0585
      6 CL         63.8556   81.9036   13.7325 Cl      1  UNL1       -0.0822
      7 C          63.8691   84.5015   13.7117 C.ar    1  UNL1        0.0225
      8 C          63.4794   85.7975   13.0645 C.ar    1  UNL1        0.0568
      9 CL         63.8825   87.0995   13.6907 Cl      1  UNL1       -0.0825
     10 O          61.8379   88.2389   11.9882 O.3     1  UNL1       -0.3451
     11 C          61.8356   89.6287   11.4237 C.3     1  UNL1        0.1690
     12 CL         66.5404   93.2411   12.3265 Cl      1  UNL1       -0.0822
     13 C          65.3642   92.3380   12.1008 C.ar    1  UNL1        0.0577
     14 C          64.7196   92.2699   10.7481 C.ar    1  UNL1        0.0111
     15 C          63.5434   91.3668   10.5224 C.ar    1  UNL1       -0.0010
     16 C          63.0118   90.5318   11.6494 C.ar    1  UNL1        0.0073
     17 C          63.6564   90.5999   13.0021 C.ar    1  UNL1       -0.0010
     18 C          64.8326   91.5030   13.2278 C.ar    1  UNL1        0.0111
     19 C          62.3665   87.2315    9.6525 C.3     1  UNL1        0.1416
     20 N          61.1188   87.1121    8.8285 N.ar    1  UNL1       -0.3050
     21 C          60.0818   88.1792    8.6392 C.ar    1  UNL1        0.0981
     22 C          59.0111   87.6314    7.7428 C.ar    1  UNL1        0.1193
     23 N          59.3864   86.2256    7.3781 N.ar    1  UNL1       -0.2223
     24 C          60.6890   85.9048    8.0491 C.ar    1  UNL1        0.1787
@<TRIPOS>BOND
     1    12    13    1
     2    13    14   ar
     3    14    15   ar
     4    15    16   ar
     5    16    11    1
     6    11    10    1
     7    10     1    1
     8     1    19    1
     9    19    20    1
    10    20    21   ar
    11    21    22   ar
    12    22    23   ar
    13    23    24   ar
    14     1     2    1
    15     2     3   ar
    16     3     4   ar
    17     4     5   ar
    18     5     6    1
    19     5     7   ar
    20     7     8   ar
    21     8     9    1
    22    16    17   ar
    23    17    18   ar
    24    18    13   ar
    25    24    20   ar
    26     8     2   ar
@<TRIPOS>MOLECULE
*****
 24 26 0 0 0
SMALL
GASTEIGER

@<TRIPOS>ATOM
      1 C          63.1553   84.2926   13.1160 C.3     1  UNL1        0.1612
      2 C          62.7938   84.6855   11.7142 C.ar    1  UNL1        0.0171
      3 C          61.7100   85.6943   11.4738 C.ar    1  UNL1       -0.0002
      4 C          61.3485   86.0871   10.0721 C.ar    1  UNL1        0.0112
      5 C          62.0708   85.4712    8.9106 C.ar    1  UNL1        0.0585
      6 CL         61.7093   85.8640    7.5089 Cl      1  UNL1       -0.0822
      7 C          63.1546   84.4624    9.1510 C.ar    1  UNL1        0.0225
      8 C          63.5161   84.0695   10.5528 C.ar    1  UNL1        0.0568
      9 CL         64.5999   83.0607   10.7932 Cl      1  UNL1       -0.0825
     10 O          64.4773   84.7042   13.6930 O.3     1  UNL1       -0.3451
     11 C          64.5601   85.1821   15.1123 C.3     1  UNL1        0.1690
     12 CL         63.0619   90.8318   16.4675 Cl      1  UNL1       -0.0822
     13 C          63.4364   89.4194   16.1287 C.ar    1  UNL1        0.0577
     14 C          64.1804   89.1245   14.8601 C.ar    1  UNL1        0.0111
     15 C          64.5549   87.7121   14.5213 C.ar    1  UNL1       -0.0010
     16 C          64.1855   86.5946   15.4511 C.ar    1  UNL1        0.0073
     17 C          63.4415   86.8895   16.7198 C.ar    1  UNL1       -0.0010
     18 C          63.0670   88.3019   17.0586 C.ar    1  UNL1        0.0111
     19 C          62.1947   83.4883   13.9409 C.3     1  UNL1        0.1416
     20 N          62.1126   82.0016   13.7593 N.ar    1  UNL1       -0.3050
     21 C          63.1773   81.1252   13.1691 C.ar    1  UNL1        0.0981
     22 C          62.6741   79.7122   13.1812 C.ar    1  UNL1        0.1193
     23 N          61.2983   79.7152   13.7788 N.ar    1  UNL1       -0.2223
     24 C          60.9513   81.1301   14.1361 C.ar    1  UNL1        0.1787
@<TRIPOS>BOND
     1    12    13    1
     2    13    14   ar
     3    14    15   ar
     4    15    16   ar
     5    16    11    1
     6    11    10    1
     7    10     1    1
     8     1    19    1
     9    19    20    1
    10    20    21   ar
    11    21    22   ar
    12    22    23   ar
    13    23    24   ar
    14     1     2    1
    15     2     3   ar
    16     3     4   ar
    17     4     5   ar
    18     5     6    1
    19     5     7   ar
    20     7     8   ar
    21     8     9    1
    22    16    17   ar
    23    17    18   ar
    24    18    13   ar
    25    24    20   ar
    26     8     2   ar
@<TRIPOS>MOLECULE
*****
 24 26 0 0 0
SMALL
GASTEIGER

@<TRIPOS>ATOM
      1 C          62.1724   88.6188   11.6822 C.3     1  UNL1        0.1612
      2 C          63.0389   89.8421   11.6288 C.ar    1  UNL1        0.0171
      3 C          63.1454   90.6307   10.3572 C.ar    1  UNL1       -0.0002
      4 C          64.0118   91.8539   10.3037 C.ar    1  UNL1        0.0112
      5 C          64.7717   92.2887   11.5218 C.ar    1  UNL1        0.0585
      6 CL         65.6381   93.5119   11.4683 Cl      1  UNL1       -0.0822
      7 C          64.6652   91.5001   12.7933 C.ar    1  UNL1        0.0225
      8 C          63.7987   90.2768   12.8468 C.ar    1  UNL1        0.0568
      9 CL         63.6921   89.4882   14.1183 Cl      1  UNL1       -0.0825
     10 O          62.7592   87.3016   12.0954 O.3     1  UNL1       -0.3451
     11 C          62.4869   86.0710   11.2820 C.3     1  UNL1        0.1690
     12 CL         63.3018   80.6386   13.6953 Cl      1  UNL1       -0.0822
     13 C          63.0981   81.9967   13.0920 C.ar    1  UNL1        0.0577
     14 C          63.2026   82.1811   11.6071 C.ar    1  UNL1        0.0111
     15 C          62.9989   83.5392   11.0037 C.ar    1  UNL1       -0.0010
     16 C          62.6906   84.7129   11.8853 C.ar    1  UNL1        0.0073
     17 C          62.5861   84.5285   13.3703 C.ar    1  UNL1       -0.0010
     18 C          62.7898   83.1704   13.9736 C.ar    1  UNL1        0.0111
     19 C          60.7192   88.7127   11.3225 C.3     1  UNL1        0.1416
     20 N          60.2739   88.4260    9.9192 N.ar    1  UNL1       -0.3050
     21 C          59.8833   87.0839    9.3748 C.ar    1  UNL1        0.0981
     22 C          59.5090   87.2596    7.9329 C.ar    1  UNL1        0.1193
     23 N          59.6682   88.7102    7.5861 N.ar    1  UNL1       -0.2223
     24 C          60.1409   89.4311    8.8137 C.ar    1  UNL1        0.1787
@<TRIPOS>BOND
     1    12    13    1
     2    13    14   ar
     3    14    15   ar
     4    15    16   ar
     5    16    11    1
     6    11    10    1
     7    10     1    1
     8     1    19    1
     9    19    20    1
    10    20    21   ar
    11    21    22   ar
    12    22    23   ar
    13    23    24   ar
    14     1     2    1
    15     2     3   ar
    16     3     4   ar
    17     4     5   ar
    18     5     6    1
    19     5     7   ar
    20     7     8   ar
    21     8     9    1
    22    16    17   ar
    23    17    18   ar
    24    18    13   ar
    25    24    20   ar
    26     8     2   ar
@<TRIPOS>MOLECULE
*****
 24 26 0 0 0
SMALL
GASTEIGER

@<TRIPOS>ATOM
      1 C          63.8297   90.2171   13.5786 C.3     1  UNL1        0.1612
      2 C          64.9187   91.0893   14.1295 C.ar    1  UNL1        0.0171
      3 C          66.0636   91.5032   13.2533 C.ar    1  UNL1       -0.0002
      4 C          67.1526   92.3753   13.8041 C.ar    1  UNL1        0.0112
      5 C          67.0966   92.8337   15.2314 C.ar    1  UNL1        0.0585
      6 CL         68.1856   93.7058   15.7822 Cl      1  UNL1       -0.0822
      7 C          65.9517   92.4198   16.1076 C.ar    1  UNL1        0.0225
      8 C          64.8627   91.5476   15.5567 C.ar    1  UNL1        0.0568
      9 CL         63.7178   91.1338   16.4330 Cl      1  UNL1       -0.0825
     10 O          63.4320   88.9658   14.3038 O.3     1  UNL1       -0.3451
     11 C          64.4447   87.8868   14.5487 C.3     1  UNL1        0.1690
     12 CL         62.9222   82.1265   13.8412 Cl      1  UNL1       -0.0822
     13 C          63.3028   83.5666   14.0181 C.ar    1  UNL1        0.0577
     14 C          63.0614   84.5477   12.9095 C.ar    1  UNL1        0.0111
     15 C          63.4421   85.9878   13.0864 C.ar    1  UNL1       -0.0010
     16 C          64.0641   86.4467   14.3718 C.ar    1  UNL1        0.0073
     17 C          64.3055   85.4656   15.4804 C.ar    1  UNL1       -0.0010
     18 C          63.9248   84.0255   15.3035 C.ar    1  UNL1        0.0111
     19 C          63.1385   90.5963   12.3025 C.3     1  UNL1        0.1416
     20 N          62.1121   89.6803   11.7047 N.ar    1  UNL1       -0.3050
     21 C          60.6346   89.7257   11.9596 C.ar    1  UNL1        0.0981
     22 C          59.9923   88.6316   11.1595 C.ar    1  UNL1        0.1193
     23 N          61.0728   87.9099   10.4100 N.ar    1  UNL1       -0.2223
     24 C          62.3829   88.5581   10.7470 C.ar    1  UNL1        0.1787
@<TRIPOS>BOND
     1    12    13    1
     2    13    14   ar
     3    14    15   ar
     4    15    16   ar
     5    16    11    1
     6    11    10    1
     7    10     1    1
     8     1    19    1
     9    19    20    1
    10    20    21   ar
    11    21    22   ar
    12    22    23   ar
    13    23    24   ar
    14     1     2    1
    15     2     3   ar
    16     3     4   ar
    17     4     5   ar
    18     5     6    1
    19     5     7   ar
    20     7     8   ar
    21     8     9    1
    22    16    17   ar
    23    17    18   ar
    24    18    13   ar
    25    24    20   ar
    26     8     2   ar
@<TRIPOS>MOLECULE
*****
 24 26 0 0 0
SMALL
GASTEIGER

@<TRIPOS>ATOM
      1 C          62.1556   88.3464   11.5376 C.3     1  UNL1        0.1612
      2 C          63.0858   89.3602   12.1350 C.ar    1  UNL1        0.0171
      3 C          63.6863   89.1213   13.4887 C.ar    1  UNL1       -0.0002
      4 C          64.6165   90.1351   14.0861 C.ar    1  UNL1        0.0112
      5 C          64.9463   91.3879   13.3298 C.ar    1  UNL1        0.0585
      6 CL         65.8765   92.4017   13.9272 Cl      1  UNL1       -0.0822
      7 C          64.3458   91.6268   11.9761 C.ar    1  UNL1        0.0225
      8 C          63.4156   90.6129   11.3787 C.ar    1  UNL1        0.0568
      9 CL         62.8152   90.8518   10.0251 Cl      1  UNL1       -0.0825
     10 O          62.6083   86.9277   11.3571 O.3     1  UNL1       -0.3451
     11 C          63.2059   86.1786   12.5111 C.3     1  UNL1        0.1690
     12 CL         62.3053   80.2704   13.0417 Cl      1  UNL1       -0.0822
     13 C          62.5304   81.7474   12.9090 C.ar    1  UNL1        0.0577
     14 C          62.4421   82.6311   14.1178 C.ar    1  UNL1        0.0111
     15 C          62.6673   84.1082   13.9852 C.ar    1  UNL1       -0.0010
     16 C          62.9808   84.7016   12.6437 C.ar    1  UNL1        0.0073
     17 C          63.0691   83.8179   11.4349 C.ar    1  UNL1       -0.0010
     18 C          62.8440   82.3408   11.5676 C.ar    1  UNL1        0.0111
     19 C          60.7727   88.7511   11.1208 C.3     1  UNL1        0.1416
     20 N          60.2409   88.3342    9.7816 N.ar    1  UNL1       -0.3050
     21 C          59.9797   89.2407    8.6155 C.ar    1  UNL1        0.0981
     22 C          59.4542   88.4043    7.4866 C.ar    1  UNL1        0.1193
     23 N          59.3905   86.9808    7.9552 N.ar    1  UNL1       -0.2223
     24 C          59.8767   86.9375    9.3735 C.ar    1  UNL1        0.1787
@<TRIPOS>BOND
     1    12    13    1
     2    13    14   ar
     3    14    15   ar
     4    15    16   ar
     5    16    11    1
     6    11    10    1
     7    10     1    1
     8     1    19    1
     9    19    20    1
    10    20    21   ar
    11    21    22   ar
    12    22    23   ar
    13    23    24   ar
    14     1     2    1
    15     2     3   ar
    16     3     4   ar
    17     4     5   ar
    18     5     6    1
    19     5     7   ar
    20     7     8   ar
    21     8     9    1
    22    16    17   ar
    23    17    18   ar
    24    18    13   ar
    25    24    20   ar
    26     8     2   ar
