@<TRIPOS>MOLECULE
*****
 39 42 0 0 0
SMALL
GASTEIGER

@<TRIPOS>ATOM
      1 C          62.8246   89.6899   12.8547 C.3     1  UNL1        0.1484
      2 O          61.5878   89.9420   13.6652 O.3     1  UNL1       -0.3810
      3 H          60.8322   89.4990   13.2483 H       1  UNL1        0.2105
      4 C          62.7483   88.8575   11.6092 C.3     1  UNL1        0.1245
      5 N          61.4788   88.8161   10.8112 N.am    1  UNL1       -0.2735
      6 C          61.0685   87.5499   10.1197 C.2     1  UNL1        0.2492
      7 O          59.7990   87.5085    9.3218 O.2     1  UNL1       -0.2699
      8 C          61.9277   86.3249   10.2260 C.ar    1  UNL1        0.0567
      9 C          62.5956   85.7688    9.0036 C.ar    1  UNL1        0.0063
     10 C          63.4549   84.5438    9.1100 C.ar    1  UNL1        0.0225
     11 C          63.6462   83.8751   10.4389 C.ar    1  UNL1        0.1190
     12 N          64.4295   82.6635   10.8493 N.ar    1  UNL1       -0.2042
     13 C          64.2457   82.4708   12.3254 C.ar    1  UNL1        0.2851
     14 O          63.3488   83.5634   12.8274 O.2     1  UNL1       -0.4312
     15 C          62.9783   84.4313   11.6615 C.ar    1  UNL1        0.1650
     16 C          62.1191   85.6562   11.5550 C.ar    1  UNL1        0.0436
     17 C          60.6196   90.0410   10.7049 C.3     1  UNL1        0.0937
     18 C          58.6382   91.4657   11.5961 C.3     1  UNL1        0.0018
     19 C          59.3821   90.1643   11.5437 C.3     1  UNL1        0.0199
     20 C          58.8886   88.9861   12.3299 C.3     1  UNL1        0.0018
     21 C          64.1376   90.2703   13.2896 C.3     1  UNL1        0.1075
     22 N          64.7705   91.3732   12.4940 N.am    1  UNL1       -0.2695
     23 C          65.4341   92.5198   13.1975 C.2     1  UNL1        0.4020
     24 O          65.4650   92.5634   14.6966 O.2     1  UNL1       -0.2264
     25 H          64.7502   91.3446   11.5102 H       1  UNL1        0.1528
     26 O          66.0670   93.6227   12.4019 O.3     1  UNL1       -0.4291
     27 C          66.3973   93.4092   10.9545 C.3     1  UNL1        0.2447
     28 C          66.7410   94.5806   10.0828 C.ar    1  UNL1        0.0714
     29 C          67.4593   94.5200    8.7673 C.ar    1  UNL1        0.1053
     30 N          67.5889   95.9201    8.2451 N.ar    1  UNL1       -0.2350
     31 C          66.9508   96.8461    9.2378 C.ar    1  UNL1        0.1343
     32 S          66.4268   96.0181   10.3735 S.2     1  UNL1       -0.0652
     33 C          64.8177   89.7476   14.5201 C.3     1  UNL1        0.0485
     34 C          64.2518   88.5615   15.2434 C.ar    1  UNL1       -0.0204
     35 C          64.5414   87.1746   14.7509 C.ar    1  UNL1       -0.0042
     36 C          63.9755   85.9885   15.4741 C.ar    1  UNL1       -0.0003
     37 C          63.1200   86.1893   16.6897 C.ar    1  UNL1       -0.0000
     38 C          62.8304   87.5762   17.1822 C.ar    1  UNL1       -0.0003
     39 C          63.3963   88.7623   16.4590 C.ar    1  UNL1       -0.0042
@<TRIPOS>BOND
     1    18    19    1
     2    19    20    1
     3    19    17    1
     4    17     5    1
     5     5     4    1
     6     4     1    1
     7     1     2    1
     8     1    21    1
     9    21    33    1
    10    33    34    1
    11    34    35   ar
    12    35    36   ar
    13    36    37   ar
    14    37    38   ar
    15    38    39   ar
    16    21    22    1
    17    22    23   am
    18    23    24    2
    19    23    26    1
    20    26    27    1
    21    27    28    1
    22    28    29   ar
    23    29    30   ar
    24    30    31   ar
    25    31    32   ar
    26     5     6   am
    27     6     7    2
    28     6     8    1
    29     8     9   ar
    30     9    10   ar
    31    10    11   ar
    32    11    12   ar
    33    12    13   ar
    34    13    14   ar
    35    14    15   ar
    36    15    16   ar
    37    39    34   ar
    38    32    28   ar
    39    16     8   ar
    40    15    11   ar
    41     2     3    1
    42    22    25    1
@<TRIPOS>MOLECULE
*****
 39 42 0 0 0
SMALL
GASTEIGER

@<TRIPOS>ATOM
      1 C          63.1656   90.1989   11.3751 C.3     1  UNL1        0.1484
      2 O          62.9755   91.3306   10.4090 O.3     1  UNL1       -0.3810
      3 H          62.4488   91.0258    9.6536 H       1  UNL1        0.2105
      4 C          62.5707   88.8537   11.0808 C.3     1  UNL1        0.1245
      5 N          61.2398   88.7557   10.3959 N.am    1  UNL1       -0.2735
      6 C          60.8255   87.4709    9.7420 C.2     1  UNL1        0.2492
      7 O          59.4946   87.3729    9.0572 O.2     1  UNL1       -0.2699
      8 C          61.7422   86.2839    9.7731 C.ar    1  UNL1        0.0567
      9 C          62.5538   85.9312    8.5621 C.ar    1  UNL1        0.0063
     10 C          63.4706   84.7443    8.5932 C.ar    1  UNL1        0.0225
     11 C          63.5755   83.9101    9.8354 C.ar    1  UNL1        0.1190
     12 N          64.3874   82.6914   10.1603 N.ar    1  UNL1       -0.2042
     13 C          64.0774   82.2909   11.5722 C.ar    1  UNL1        0.2851
     14 O          63.0740   83.2621   12.1199 O.2     1  UNL1       -0.4312
     15 C          62.7639   84.2629   11.0465 C.ar    1  UNL1        0.1650
     16 C          61.8472   85.4498   11.0154 C.ar    1  UNL1        0.0436
     17 C          60.3231   89.9426   10.3649 C.3     1  UNL1        0.0937
     18 C          59.1389   89.1207   12.5263 C.3     1  UNL1        0.0018
     19 C          59.3798   90.1917   11.5042 C.3     1  UNL1        0.0199
     20 C          58.6774   91.5119   11.6214 C.3     1  UNL1        0.0018
     21 C          63.9505   90.4124   12.6354 C.3     1  UNL1        0.1075
     22 N          64.2882   89.2456   13.5154 N.am    1  UNL1       -0.2695
     23 C          63.4797   88.9790   14.7505 C.2     1  UNL1        0.4020
     24 O          62.3336   89.8793   15.1055 O.2     1  UNL1       -0.2264
     25 H          65.0404   88.6547   13.2824 H       1  UNL1        0.1528
     26 O          63.8173   87.8122   15.6305 O.3     1  UNL1       -0.4291
     27 C          64.5868   86.6510   15.0742 C.3     1  UNL1        0.2447
     28 C          64.0318   85.2618   15.1838 C.ar    1  UNL1        0.0714
     29 C          64.7819   83.9895   14.9219 C.ar    1  UNL1        0.1053
     30 N          63.8429   82.8424   15.1507 N.ar    1  UNL1       -0.2350
     31 C          62.5125   83.4057   15.5541 C.ar    1  UNL1        0.1343
     32 S          62.6293   84.9010   15.5745 S.2     1  UNL1       -0.0652
     33 C          64.3978   91.7927   13.0155 C.3     1  UNL1        0.0485
     34 C          65.6318   91.9787   13.8477 C.ar    1  UNL1       -0.0204
     35 C          66.9862   91.9074   13.2070 C.ar    1  UNL1       -0.0042
     36 C          68.2203   92.0934   14.0391 C.ar    1  UNL1       -0.0003
     37 C          68.1001   92.3506   15.5120 C.ar    1  UNL1       -0.0000
     38 C          66.7457   92.4219   16.1527 C.ar    1  UNL1       -0.0003
     39 C          65.5116   92.2360   15.3206 C.ar    1  UNL1       -0.0042
@<TRIPOS>BOND
     1    18    19    1
     2    19    20    1
     3    19    17    1
     4    17     5    1
     5     5     4    1
     6     4     1    1
     7     1     2    1
     8     1    21    1
     9    21    33    1
    10    33    34    1
    11    34    35   ar
    12    35    36   ar
    13    36    37   ar
    14    37    38   ar
    15    38    39   ar
    16    21    22    1
    17    22    23   am
    18    23    24    2
    19    23    26    1
    20    26    27    1
    21    27    28    1
    22    28    29   ar
    23    29    30   ar
    24    30    31   ar
    25    31    32   ar
    26     5     6   am
    27     6     7    2
    28     6     8    1
    29     8     9   ar
    30     9    10   ar
    31    10    11   ar
    32    11    12   ar
    33    12    13   ar
    34    13    14   ar
    35    14    15   ar
    36    15    16   ar
    37    39    34   ar
    38    32    28   ar
    39    16     8   ar
    40    15    11   ar
    41     2     3    1
    42    22    25    1
@<TRIPOS>MOLECULE
*****
 39 42 0 0 0
SMALL
GASTEIGER

@<TRIPOS>ATOM
      1 C          62.3814   85.8320   11.4450 C.3     1  UNL1        0.1484
      2 O          62.7849   85.0600   10.2238 O.3     1  UNL1       -0.3810
      3 H          63.1044   84.1827   10.4868 H       1  UNL1        0.2105
      4 C          62.5100   85.2081   12.8031 C.3     1  UNL1        0.1245
      5 N          63.7788   84.5075   13.1896 N.am    1  UNL1       -0.2735
      6 C          64.6196   85.0427   14.3105 C.2     1  UNL1        0.2492
      7 O          65.8883   84.3422   14.6970 O.2     1  UNL1       -0.2699
      8 C          64.1916   86.2787   15.0450 C.ar    1  UNL1        0.0567
      9 C          63.3852   86.1613   16.3043 C.ar    1  UNL1        0.0063
     10 C          62.9572   87.3972   17.0388 C.ar    1  UNL1        0.0225
     11 C          63.3356   88.7505   16.5138 C.ar    1  UNL1        0.1190
     12 N          63.0592   90.1359   17.0181 N.ar    1  UNL1       -0.2042
     13 C          63.6948   91.1094   16.0703 C.ar    1  UNL1        0.2851
     14 O          64.3640   90.3257   14.9804 O.2     1  UNL1       -0.4312
     15 C          64.1420   88.8678   15.2545 C.ar    1  UNL1        0.1650
     16 C          64.5700   87.6319   14.5201 C.ar    1  UNL1        0.0436
     17 C          64.2068   83.2717   12.4551 C.3     1  UNL1        0.0937
     18 C          62.5139   81.6287   13.5437 C.3     1  UNL1        0.0018
     19 C          63.2701   82.1058   12.3393 C.3     1  UNL1        0.0199
     20 C          63.0895   81.4170   11.0191 C.3     1  UNL1        0.0018
     21 C          61.8493   87.2278   11.3082 C.3     1  UNL1        0.1075
     22 N          62.7595   88.4013   11.5185 N.am    1  UNL1       -0.2695
     23 C          62.2441   89.6392   12.1908 C.2     1  UNL1        0.4020
     24 O          60.8184   89.7035   12.6528 O.2     1  UNL1       -0.2264
     25 H          63.6952   88.3591   11.2153 H       1  UNL1        0.1528
     26 O          63.1543   90.8128   12.4011 O.3     1  UNL1       -0.4291
     27 C          64.0145   91.3059   11.2757 C.3     1  UNL1        0.2447
     28 C          65.0341   92.3775   11.5249 C.ar    1  UNL1        0.0714
     29 C          65.7482   92.6312   12.8194 C.ar    1  UNL1        0.1053
     30 N          66.6740   93.7940   12.6179 N.ar    1  UNL1       -0.2350
     31 C          66.5322   94.2590   11.1989 C.ar    1  UNL1        0.1343
     32 S          65.5187   93.3836   10.5234 S.2     1  UNL1       -0.0652
     33 C          60.4071   87.4499   10.9611 C.3     1  UNL1        0.0485
     34 C          60.0194   87.8002    9.5550 C.ar    1  UNL1       -0.0204
     35 C          59.4980   86.7373    8.6339 C.ar    1  UNL1       -0.0042
     36 C          59.1103   87.0875    7.2278 C.ar    1  UNL1       -0.0003
     37 C          59.2441   88.5006    6.7428 C.ar    1  UNL1       -0.0000
     38 C          59.7655   89.5635    7.6639 C.ar    1  UNL1       -0.0003
     39 C          60.1532   89.2133    9.0700 C.ar    1  UNL1       -0.0042
@<TRIPOS>BOND
     1    18    19    1
     2    19    20    1
     3    19    17    1
     4    17     5    1
     5     5     4    1
     6     4     1    1
     7     1     2    1
     8     1    21    1
     9    21    33    1
    10    33    34    1
    11    34    35   ar
    12    35    36   ar
    13    36    37   ar
    14    37    38   ar
    15    38    39   ar
    16    21    22    1
    17    22    23   am
    18    23    24    2
    19    23    26    1
    20    26    27    1
    21    27    28    1
    22    28    29   ar
    23    29    30   ar
    24    30    31   ar
    25    31    32   ar
    26     5     6   am
    27     6     7    2
    28     6     8    1
    29     8     9   ar
    30     9    10   ar
    31    10    11   ar
    32    11    12   ar
    33    12    13   ar
    34    13    14   ar
    35    14    15   ar
    36    15    16   ar
    37    39    34   ar
    38    32    28   ar
    39    16     8   ar
    40    15    11   ar
    41     2     3    1
    42    22    25    1
@<TRIPOS>MOLECULE
*****
 39 42 0 0 0
SMALL
GASTEIGER

@<TRIPOS>ATOM
      1 C          62.3652   89.2705   12.2875 C.3     1  UNL1        0.1484
      2 O          61.5726   89.9007   13.3942 O.3     1  UNL1       -0.3810
      3 H          61.6714   89.3743   14.2030 H       1  UNL1        0.2105
      4 C          63.1444   88.0148   12.5442 C.3     1  UNL1        0.1245
      5 N          64.0107   87.9056   13.7639 N.am    1  UNL1       -0.2735
      6 C          64.3372   86.5570   14.3337 C.2     1  UNL1        0.2492
      7 O          65.2034   86.4479   15.5534 O.2     1  UNL1       -0.2699
      8 C          63.7974   85.3175   13.6838 C.ar    1  UNL1        0.0567
      9 C          63.1428   85.4012   12.3368 C.ar    1  UNL1        0.0063
     10 C          62.6030   84.1617   11.6869 C.ar    1  UNL1        0.0225
     11 C          62.7178   82.8386   12.3841 C.ar    1  UNL1        0.1190
     12 N          62.2822   81.4573   11.9938 N.ar    1  UNL1       -0.2042
     13 C          62.6676   80.5200   13.0996 C.ar    1  UNL1        0.2851
     14 O          63.3414   81.3219   14.1734 O.2     1  UNL1       -0.4312
     15 C          63.3724   82.7549   13.7311 C.ar    1  UNL1        0.1650
     16 C          63.9122   83.9944   14.3810 C.ar    1  UNL1        0.0436
     17 C          64.5505   89.1451   14.4137 C.3     1  UNL1        0.0937
     18 C          64.0079   91.1778   15.9380 C.3     1  UNL1        0.0018
     19 C          63.8658   89.7192   15.6186 C.3     1  UNL1        0.0199
     20 C          63.0390   88.8346   16.5040 C.3     1  UNL1        0.0018
     21 C          62.3786   89.8961   10.9242 C.3     1  UNL1        0.1075
     22 N          63.5929   90.6393   10.4520 N.am    1  UNL1       -0.2695
     23 C          64.2578   91.6384   11.3518 C.2     1  UNL1        0.4020
     24 O          63.7084   91.8941   12.7240 O.2     1  UNL1       -0.2264
     25 H          63.9534   90.4715    9.5514 H       1  UNL1        0.1528
     26 O          65.4720   92.3816   10.8796 O.3     1  UNL1       -0.4291
     27 C          66.0859   93.4421   11.7447 C.3     1  UNL1        0.2447
     28 C          66.6829   93.0754   13.0710 C.ar    1  UNL1        0.0714
     29 C          66.5531   93.8593   14.3433 C.ar    1  UNL1        0.1053
     30 N          67.3044   93.1288   15.4166 N.ar    1  UNL1       -0.2350
     31 C          67.8984   91.8934   14.8076 C.ar    1  UNL1        0.1343
     32 S          67.5143   91.8604   13.3581 S.2     1  UNL1       -0.0652
     33 C          61.1776   89.7783   10.0333 C.3     1  UNL1        0.0485
     34 C          60.9187   88.5024    9.2882 C.ar    1  UNL1       -0.0204
     35 C          59.6694   88.3508    8.4720 C.ar    1  UNL1       -0.0042
     36 C          59.4104   87.0750    7.7269 C.ar    1  UNL1       -0.0003
     37 C          60.4008   85.9507    7.7980 C.ar    1  UNL1       -0.0000
     38 C          61.6502   86.1022    8.6141 C.ar    1  UNL1       -0.0003
     39 C          61.9091   87.3781    9.3593 C.ar    1  UNL1       -0.0042
@<TRIPOS>BOND
     1    18    19    1
     2    19    20    1
     3    19    17    1
     4    17     5    1
     5     5     4    1
     6     4     1    1
     7     1     2    1
     8     1    21    1
     9    21    33    1
    10    33    34    1
    11    34    35   ar
    12    35    36   ar
    13    36    37   ar
    14    37    38   ar
    15    38    39   ar
    16    21    22    1
    17    22    23   am
    18    23    24    2
    19    23    26    1
    20    26    27    1
    21    27    28    1
    22    28    29   ar
    23    29    30   ar
    24    30    31   ar
    25    31    32   ar
    26     5     6   am
    27     6     7    2
    28     6     8    1
    29     8     9   ar
    30     9    10   ar
    31    10    11   ar
    32    11    12   ar
    33    12    13   ar
    34    13    14   ar
    35    14    15   ar
    36    15    16   ar
    37    39    34   ar
    38    32    28   ar
    39    16     8   ar
    40    15    11   ar
    41     2     3    1
    42    22    25    1
@<TRIPOS>MOLECULE
*****
 39 42 0 0 0
SMALL
GASTEIGER

@<TRIPOS>ATOM
      1 C          62.3746   89.2907   12.2687 C.3     1  UNL1        0.1484
      2 O          61.5742   89.9108   13.3755 O.3     1  UNL1       -0.3810
      3 H          61.6829   89.3880   14.1853 H       1  UNL1        0.2105
      4 C          63.1743   88.0482   12.5268 C.3     1  UNL1        0.1245
      5 N          64.0040   87.9353   13.7714 N.am    1  UNL1       -0.2735
      6 C          64.3091   86.5852   14.3494 C.2     1  UNL1        0.2492
      7 O          65.1387   86.4723   15.5940 O.2     1  UNL1       -0.2699
      8 C          63.7847   85.3480   13.6828 C.ar    1  UNL1        0.0567
      9 C          63.1223   85.4427   12.3404 C.ar    1  UNL1        0.0063
     10 C          62.5979   84.2055   11.6737 C.ar    1  UNL1        0.0225
     11 C          62.7358   82.8736   12.3496 C.ar    1  UNL1        0.1190
     12 N          62.3189   81.4922   11.9399 N.ar    1  UNL1       -0.2042
     13 C          62.7236   80.5437   13.0292 C.ar    1  UNL1        0.2851
     14 O          63.3906   81.3389   14.1121 O.2     1  UNL1       -0.4312
     15 C          63.3982   82.7788   13.6921 C.ar    1  UNL1        0.1650
     16 C          63.9226   84.0160   14.3587 C.ar    1  UNL1        0.0436
     17 C          64.5284   89.1724   14.4380 C.3     1  UNL1        0.0937
     18 C          63.0026   88.8164   16.5105 C.3     1  UNL1        0.0018
     19 C          63.8396   89.7190   15.6533 C.3     1  UNL1        0.0199
     20 C          63.9877   91.1681   16.0112 C.3     1  UNL1        0.0018
     21 C          62.3752   89.9130   10.9039 C.3     1  UNL1        0.1075
     22 N          63.5922   90.6381   10.4108 N.am    1  UNL1       -0.2695
     23 C          64.2803   91.6359   11.2946 C.2     1  UNL1        0.4020
     24 O          63.7513   91.9085   12.6715 O.2     1  UNL1       -0.2264
     25 H          63.9394   90.4592    9.5071 H       1  UNL1        0.1528
     26 O          65.4973   92.3609   10.8015 O.3     1  UNL1       -0.4291
     27 C          65.8030   93.7409   11.3037 C.3     1  UNL1        0.2447
     28 C          66.4338   94.7491   10.3895 C.ar    1  UNL1        0.0714
     29 C          67.1532   94.4488    9.1080 C.ar    1  UNL1        0.1053
     30 N          67.6199   95.7487    8.5229 N.ar    1  UNL1       -0.2350
     31 C          67.1888   96.8524    9.4427 C.ar    1  UNL1        0.1343
     32 S          66.4558   96.2346   10.5963 S.2     1  UNL1       -0.0652
     33 C          61.1589   89.8103   10.0322 C.3     1  UNL1        0.0485
     34 C          60.8768   88.5406    9.2849 C.ar    1  UNL1       -0.0204
     35 C          59.6280   88.4156    8.4634 C.ar    1  UNL1       -0.0042
     36 C          59.3459   87.1460    7.7160 C.ar    1  UNL1       -0.0003
     37 C          60.3126   86.0014    7.7901 C.ar    1  UNL1       -0.0000
     38 C          61.5614   86.1265    8.6116 C.ar    1  UNL1       -0.0003
     39 C          61.8435   87.3961    9.3590 C.ar    1  UNL1       -0.0042
@<TRIPOS>BOND
     1    18    19    1
     2    19    20    1
     3    19    17    1
     4    17     5    1
     5     5     4    1
     6     4     1    1
     7     1     2    1
     8     1    21    1
     9    21    33    1
    10    33    34    1
    11    34    35   ar
    12    35    36   ar
    13    36    37   ar
    14    37    38   ar
    15    38    39   ar
    16    21    22    1
    17    22    23   am
    18    23    24    2
    19    23    26    1
    20    26    27    1
    21    27    28    1
    22    28    29   ar
    23    29    30   ar
    24    30    31   ar
    25    31    32   ar
    26     5     6   am
    27     6     7    2
    28     6     8    1
    29     8     9   ar
    30     9    10   ar
    31    10    11   ar
    32    11    12   ar
    33    12    13   ar
    34    13    14   ar
    35    14    15   ar
    36    15    16   ar
    37    39    34   ar
    38    32    28   ar
    39    16     8   ar
    40    15    11   ar
    41     2     3    1
    42    22    25    1
@<TRIPOS>MOLECULE
*****
 39 42 0 0 0
SMALL
GASTEIGER

@<TRIPOS>ATOM
      1 C          62.4559   89.9569   12.1305 C.3     1  UNL1        0.1484
      2 O          61.1465   90.1108   12.8460 O.3     1  UNL1       -0.3810
      3 H          61.1487   90.9397   13.3497 H       1  UNL1        0.2105
      4 C          63.5146   91.0103   12.2692 C.3     1  UNL1        0.1245
      5 N          64.1661   91.2484   13.5992 N.am    1  UNL1       -0.2735
      6 C          65.4795   91.9693   13.6728 C.2     1  UNL1        0.2492
      7 O          66.1309   92.2073   15.0027 O.2     1  UNL1       -0.2699
      8 C          66.1414   92.4521   12.4162 C.ar    1  UNL1        0.0567
      9 C          67.2898   91.6849   11.8311 C.ar    1  UNL1        0.0063
     10 C          67.9517   92.1677   10.5745 C.ar    1  UNL1        0.0225
     11 C          67.4651   93.4177    9.9031 C.ar    1  UNL1        0.1190
     12 N          67.9162   94.1321    8.6637 N.ar    1  UNL1       -0.2042
     13 C          67.0465   95.3407    8.4829 C.ar    1  UNL1        0.2851
     14 O          66.0579   95.3734    9.6106 O.2     1  UNL1       -0.4312
     15 C          66.3166   94.1849   10.4883 C.ar    1  UNL1        0.1650
     16 C          65.6547   93.7020   11.7448 C.ar    1  UNL1        0.0436
     17 C          63.5042   90.7657   14.8557 C.3     1  UNL1        0.0937
     18 C          63.1778   88.9248   16.6598 C.3     1  UNL1        0.0018
     19 C          63.7754   89.3798   15.3614 C.3     1  UNL1        0.0199
     20 C          64.6443   88.4488   14.5687 C.3     1  UNL1        0.0018
     21 C          62.7065   88.7496   11.2763 C.3     1  UNL1        0.1075
     22 N          63.0874   87.4461   11.9133 N.am    1  UNL1       -0.2695
     23 C          62.0379   86.4098   12.1864 C.2     1  UNL1        0.4020
     24 O          60.6075   86.6770   11.8226 O.2     1  UNL1       -0.2264
     25 H          64.0263   87.2708   12.1521 H       1  UNL1        0.1528
     26 O          62.4189   85.1064   12.8234 O.3     1  UNL1       -0.4291
     27 C          62.8656   83.9567   11.9699 C.3     1  UNL1        0.2447
     28 C          62.7005   82.5491   12.4613 C.ar    1  UNL1        0.0714
     29 C          62.9539   81.3024   11.6666 C.ar    1  UNL1        0.1053
     30 N          62.6630   80.1239   12.5478 N.ar    1  UNL1       -0.2350
     31 C          62.2298   80.6423   13.8871 C.ar    1  UNL1        0.1343
     32 S          62.2530   82.1411   13.8335 S.2     1  UNL1       -0.0652
     33 C          62.5761   88.8459    9.7851 C.3     1  UNL1        0.0485
     34 C          61.4764   88.1093    9.0792 C.ar    1  UNL1       -0.0204
     35 C          60.1874   88.8087    8.7640 C.ar    1  UNL1       -0.0042
     36 C          59.0876   88.0722    8.0582 C.ar    1  UNL1       -0.0003
     37 C          59.2769   86.6364    7.6676 C.ar    1  UNL1       -0.0000
     38 C          60.5659   85.9370    7.9828 C.ar    1  UNL1       -0.0003
     39 C          61.6656   86.6735    8.6886 C.ar    1  UNL1       -0.0042
@<TRIPOS>BOND
     1    18    19    1
     2    19    20    1
     3    19    17    1
     4    17     5    1
     5     5     4    1
     6     4     1    1
     7     1     2    1
     8     1    21    1
     9    21    33    1
    10    33    34    1
    11    34    35   ar
    12    35    36   ar
    13    36    37   ar
    14    37    38   ar
    15    38    39   ar
    16    21    22    1
    17    22    23   am
    18    23    24    2
    19    23    26    1
    20    26    27    1
    21    27    28    1
    22    28    29   ar
    23    29    30   ar
    24    30    31   ar
    25    31    32   ar
    26     5     6   am
    27     6     7    2
    28     6     8    1
    29     8     9   ar
    30     9    10   ar
    31    10    11   ar
    32    11    12   ar
    33    12    13   ar
    34    13    14   ar
    35    14    15   ar
    36    15    16   ar
    37    39    34   ar
    38    32    28   ar
    39    16     8   ar
    40    15    11   ar
    41     2     3    1
    42    22    25    1
@<TRIPOS>MOLECULE
*****
 39 42 0 0 0
SMALL
GASTEIGER

@<TRIPOS>ATOM
      1 C          62.8098   85.1177   11.9875 C.3     1  UNL1        0.1484
      2 O          63.7894   84.3837   11.1204 O.3     1  UNL1       -0.3810
      3 H          64.0409   83.5511   11.5498 H       1  UNL1        0.2105
      4 C          62.3774   84.5266   13.2966 C.3     1  UNL1        0.1245
      5 N          63.3262   83.6719   14.0836 N.am    1  UNL1       -0.2735
      6 C          64.0154   84.2331   15.2919 C.2     1  UNL1        0.2492
      7 O          64.9641   83.3784   16.0788 O.2     1  UNL1       -0.2699
      8 C          63.7558   85.6492   15.7132 C.ar    1  UNL1        0.0567
      9 C          62.9308   85.9292   16.9341 C.ar    1  UNL1        0.0063
     10 C          62.6712   87.3453   17.3554 C.ar    1  UNL1        0.0225
     11 C          63.2368   88.4813   16.5556 C.ar    1  UNL1        0.1190
     12 N          63.1498   89.9691   16.7251 N.ar    1  UNL1       -0.2042
     13 C          63.9211   90.6086   15.6089 C.ar    1  UNL1        0.2851
     14 O          64.4848   89.5160   14.7495 O.2     1  UNL1       -0.4312
     15 C          64.0618   88.2012   15.3346 C.ar    1  UNL1        0.1650
     16 C          64.3213   86.7852   14.9134 C.ar    1  UNL1        0.0436
     17 C          63.5857   82.2559   13.6623 C.3     1  UNL1        0.0937
     18 C          62.5825   81.0611   11.5847 C.3     1  UNL1        0.0018
     19 C          62.4905   81.4485   13.0309 C.3     1  UNL1        0.0199
     20 C          61.3032   81.0285   13.8457 C.3     1  UNL1        0.0018
     21 C          62.2628   86.4426   11.5456 C.3     1  UNL1        0.1075
     22 N          62.8252   87.7127   12.1117 N.am    1  UNL1       -0.2695
     23 C          62.7787   88.9777   11.3070 C.2     1  UNL1        0.4020
     24 O          62.1699   88.9725    9.9361 O.2     1  UNL1       -0.2264
     25 H          63.2248   87.7161   13.0115 H       1  UNL1        0.1528
     26 O          63.3411   90.2478   11.8731 O.3     1  UNL1       -0.4291
     27 C          63.8432   91.3212   10.9534 C.3     1  UNL1        0.2447
     28 C          64.9733   92.2089   11.3832 C.ar    1  UNL1        0.0714
     29 C          65.8138   93.0648   10.4825 C.ar    1  UNL1        0.1053
     30 N          66.8213   93.7814   11.3317 N.ar    1  UNL1       -0.2350
     31 C          66.6036   93.3685   12.7572 C.ar    1  UNL1        0.1343
     32 S          65.4615   92.3966   12.7890 S.2     1  UNL1       -0.0652
     33 C          61.1533   86.4973   10.5377 C.3     1  UNL1        0.0485
     34 C          61.3644   85.9447    9.1592 C.ar    1  UNL1       -0.0204
     35 C          62.7228   85.4623    8.7446 C.ar    1  UNL1       -0.0042
     36 C          62.9340   84.9097    7.3662 C.ar    1  UNL1       -0.0003
     37 C          61.7868   84.8395    6.4024 C.ar    1  UNL1       -0.0000
     38 C          60.4284   85.3220    6.8170 C.ar    1  UNL1       -0.0003
     39 C          60.2172   85.8746    8.1954 C.ar    1  UNL1       -0.0042
@<TRIPOS>BOND
     1    18    19    1
     2    19    20    1
     3    19    17    1
     4    17     5    1
     5     5     4    1
     6     4     1    1
     7     1     2    1
     8     1    21    1
     9    21    33    1
    10    33    34    1
    11    34    35   ar
    12    35    36   ar
    13    36    37   ar
    14    37    38   ar
    15    38    39   ar
    16    21    22    1
    17    22    23   am
    18    23    24    2
    19    23    26    1
    20    26    27    1
    21    27    28    1
    22    28    29   ar
    23    29    30   ar
    24    30    31   ar
    25    31    32   ar
    26     5     6   am
    27     6     7    2
    28     6     8    1
    29     8     9   ar
    30     9    10   ar
    31    10    11   ar
    32    11    12   ar
    33    12    13   ar
    34    13    14   ar
    35    14    15   ar
    36    15    16   ar
    37    39    34   ar
    38    32    28   ar
    39    16     8   ar
    40    15    11   ar
    41     2     3    1
    42    22    25    1
@<TRIPOS>MOLECULE
*****
 39 42 0 0 0
SMALL
GASTEIGER

@<TRIPOS>ATOM
      1 C          61.9136   89.1568   12.1588 C.3     1  UNL1        0.1484
      2 O          60.8932   89.8107   13.0427 O.3     1  UNL1       -0.3810
      3 H          61.3435   90.3126   13.7401 H       1  UNL1        0.2105
      4 C          63.3759   89.3427   12.4368 C.3     1  UNL1        0.1245
      5 N          63.8288   90.4101   13.3884 N.am    1  UNL1       -0.2735
      6 C          64.0777   90.0744   14.8290 C.2     1  UNL1        0.2492
      7 O          64.5305   91.1419   15.7804 O.2     1  UNL1       -0.2699
      8 C          63.8736   88.6711   15.3181 C.ar    1  UNL1        0.0567
      9 C          63.1331   88.4234   16.5987 C.ar    1  UNL1        0.0063
     10 C          62.9291   87.0200   17.0878 C.ar    1  UNL1        0.0225
     11 C          63.4656   85.8645   16.2961 C.ar    1  UNL1        0.1190
     12 N          63.4194   84.3829   16.5257 N.ar    1  UNL1       -0.2042
     13 C          64.1313   83.7150   15.3869 C.ar    1  UNL1        0.2851
     14 O          64.6176   84.7837   14.4534 O.2     1  UNL1       -0.4312
     15 C          64.2062   86.1123   15.0154 C.ar    1  UNL1        0.1650
     16 C          64.4102   87.5155   14.5264 C.ar    1  UNL1        0.0436
     17 C          64.0328   91.8134   12.8993 C.3     1  UNL1        0.0937
     18 C          65.2877   92.3754   10.6949 C.3     1  UNL1        0.0018
     19 C          65.2979   92.1812   12.1822 C.3     1  UNL1        0.0199
     20 C          66.5732   92.3550   12.9525 C.3     1  UNL1        0.0018
     21 C          61.4719   88.3172   10.9970 C.3     1  UNL1        0.1075
     22 N          61.4191   88.9103    9.6202 N.am    1  UNL1       -0.2695
     23 C          60.3251   88.5130    8.6740 C.2     1  UNL1        0.4020
     24 O          59.2839   87.5228    9.1045 O.2     1  UNL1       -0.2264
     25 H          62.1024   89.5602    9.3376 H       1  UNL1        0.1528
     26 O          60.2722   89.1061    7.2972 O.3     1  UNL1       -0.4291
     27 C          58.9483   89.3466    6.6344 C.3     1  UNL1        0.2447
     28 C          58.7833   90.4945    5.6831 C.ar    1  UNL1        0.0714
     29 C          57.4810   91.0968    5.2456 C.ar    1  UNL1        0.1053
     30 N          57.7844   92.2163    4.2945 N.ar    1  UNL1       -0.2350
     31 C          59.2742   92.3059    4.1441 C.ar    1  UNL1        0.1343
     32 S          59.8914   91.2418    5.0024 S.2     1  UNL1       -0.0652
     33 C          61.0830   86.8846   11.2120 C.3     1  UNL1        0.0485
     34 C          62.0053   85.7839   10.7786 C.ar    1  UNL1       -0.0204
     35 C          62.4676   84.7585   11.7711 C.ar    1  UNL1       -0.0042
     36 C          63.3899   83.6578   11.3378 C.ar    1  UNL1       -0.0003
     37 C          63.8501   83.5825    9.9121 C.ar    1  UNL1       -0.0000
     38 C          63.3878   84.6078    8.9197 C.ar    1  UNL1       -0.0003
     39 C          62.4655   85.7085    9.3529 C.ar    1  UNL1       -0.0042
@<TRIPOS>BOND
     1    18    19    1
     2    19    20    1
     3    19    17    1
     4    17     5    1
     5     5     4    1
     6     4     1    1
     7     1     2    1
     8     1    21    1
     9    21    33    1
    10    33    34    1
    11    34    35   ar
    12    35    36   ar
    13    36    37   ar
    14    37    38   ar
    15    38    39   ar
    16    21    22    1
    17    22    23   am
    18    23    24    2
    19    23    26    1
    20    26    27    1
    21    27    28    1
    22    28    29   ar
    23    29    30   ar
    24    30    31   ar
    25    31    32   ar
    26     5     6   am
    27     6     7    2
    28     6     8    1
    29     8     9   ar
    30     9    10   ar
    31    10    11   ar
    32    11    12   ar
    33    12    13   ar
    34    13    14   ar
    35    14    15   ar
    36    15    16   ar
    37    39    34   ar
    38    32    28   ar
    39    16     8   ar
    40    15    11   ar
    41     2     3    1
    42    22    25    1
@<TRIPOS>MOLECULE
*****
 39 42 0 0 0
SMALL
GASTEIGER

@<TRIPOS>ATOM
      1 C          63.0935   87.3189   12.4619 C.3     1  UNL1        0.1484
      2 O          63.8177   88.2998   13.3357 O.3     1  UNL1       -0.3810
      3 H          64.2066   87.8333   14.0920 H       1  UNL1        0.2105
      4 C          63.0622   85.8656   12.8319 C.3     1  UNL1        0.1245
      5 N          63.8329   85.3780   14.0228 N.am    1  UNL1       -0.2735
      6 C          64.3084   83.9564   14.0779 C.2     1  UNL1        0.2492
      7 O          65.0791   83.4690   15.2688 O.2     1  UNL1       -0.2699
      8 C          64.0133   83.0224   12.9418 C.ar    1  UNL1        0.0567
      9 C          64.3123   83.4380   11.5321 C.ar    1  UNL1        0.0063
     10 C          64.0172   82.5039   10.3960 C.ar    1  UNL1        0.0225
     11 C          63.4228   81.1542   10.6700 C.ar    1  UNL1        0.1190
     12 N          63.0269   80.0287    9.7609 N.ar    1  UNL1       -0.2042
     13 C          62.4830   78.9174   10.6091 C.ar    1  UNL1        0.2851
     14 O          62.5429   79.3561   12.0422 O.2     1  UNL1       -0.4312
     15 C          63.1237   80.7386   12.0799 C.ar    1  UNL1        0.1650
     16 C          63.4189   81.6727   13.2158 C.ar    1  UNL1        0.0436
     17 C          64.1281   86.3121   15.1588 C.3     1  UNL1        0.0937
     18 C          63.0741   87.6945   17.0896 C.3     1  UNL1        0.0018
     19 C          63.1741   86.4159   16.3117 C.3     1  UNL1        0.0199
     20 C          62.3201   85.2411   16.6866 C.3     1  UNL1        0.0018
     21 C          62.4007   87.7912   11.2181 C.3     1  UNL1        0.1075
     22 N          62.8631   89.0418   10.5310 N.am    1  UNL1       -0.2695
     23 C          62.5836   90.3818   11.1444 C.2     1  UNL1        0.4020
     24 O          61.8417   90.4712   12.4450 O.2     1  UNL1       -0.2264
     25 H          63.3500   88.9831    9.6773 H       1  UNL1        0.1528
     26 O          63.0460   91.6324   10.4572 O.3     1  UNL1       -0.4291
     27 C          64.4983   92.0067   10.4786 C.3     1  UNL1        0.2447
     28 C          65.1399   92.4497   11.7601 C.ar    1  UNL1        0.0714
     29 C          64.9862   91.7884   13.0977 C.ar    1  UNL1        0.1053
     30 N          65.7991   92.5617   14.0932 N.ar    1  UNL1       -0.2350
     31 C          66.4553   93.7009   13.3709 C.ar    1  UNL1        0.1343
     32 S          66.0478   93.6316   11.9290 S.2     1  UNL1       -0.0652
     33 C          61.2455   87.0130   10.6617 C.3     1  UNL1        0.0485
     34 C          61.3863   86.2945    9.3524 C.ar    1  UNL1       -0.0204
     35 C          62.6821   85.6269    8.9989 C.ar    1  UNL1       -0.0042
     36 C          62.8230   84.9084    7.6897 C.ar    1  UNL1       -0.0003
     37 C          61.6681   84.8577    6.7340 C.ar    1  UNL1       -0.0000
     38 C          60.3722   85.5254    7.0874 C.ar    1  UNL1       -0.0003
     39 C          60.2313   86.2438    8.3966 C.ar    1  UNL1       -0.0042
@<TRIPOS>BOND
     1    18    19    1
     2    19    20    1
     3    19    17    1
     4    17     5    1
     5     5     4    1
     6     4     1    1
     7     1     2    1
     8     1    21    1
     9    21    33    1
    10    33    34    1
    11    34    35   ar
    12    35    36   ar
    13    36    37   ar
    14    37    38   ar
    15    38    39   ar
    16    21    22    1
    17    22    23   am
    18    23    24    2
    19    23    26    1
    20    26    27    1
    21    27    28    1
    22    28    29   ar
    23    29    30   ar
    24    30    31   ar
    25    31    32   ar
    26     5     6   am
    27     6     7    2
    28     6     8    1
    29     8     9   ar
    30     9    10   ar
    31    10    11   ar
    32    11    12   ar
    33    12    13   ar
    34    13    14   ar
    35    14    15   ar
    36    15    16   ar
    37    39    34   ar
    38    32    28   ar
    39    16     8   ar
    40    15    11   ar
    41     2     3    1
    42    22    25    1
