@<TRIPOS>MOLECULE
*****
 37 40 0 0 0
SMALL
GASTEIGER

@<TRIPOS>ATOM
      1 N          63.3726   85.9339   13.8634 N.am    1  UNL1       -0.2463
      2 C          63.3308   85.2451   15.1953 C.2     1  UNL1        0.2869
      3 O          63.6807   85.8607   16.5176 O.2     1  UNL1       -0.2662
      4 C          62.8778   83.8326   14.9727 C.2     1  UNL1        0.1887
      5 O          62.6950   82.7877   16.0332 O.2     1  UNL1       -0.5020
      6 C          62.6395   83.6484   13.5031 C.2     1  UNL1        0.0732
      7 C          62.9454   84.9471   12.8176 C.3     1  UNL1        0.1338
      8 H          62.8691   82.9952   16.9303 H       1  UNL1        0.2924
      9 C          64.5696   90.2099   13.1334 C.ar    1  UNL1        0.0392
     10 C          64.9926   89.5176   14.3951 C.ar    1  UNL1        0.0044
     11 C          64.5936   88.0923   14.6384 C.ar    1  UNL1        0.0150
     12 C          63.7716   87.3593   13.6201 C.ar    1  UNL1        0.0548
     13 C          63.3486   88.0516   12.3585 C.ar    1  UNL1        0.0150
     14 C          63.7476   89.4769   12.1151 C.ar    1  UNL1        0.0044
     15 C          65.7217   94.7591   10.7129 C.3     1  UNL1        0.0978
     16 C          65.4981   93.7263   11.7775 C.ar    1  UNL1        0.2371
     17 N          65.0665   92.3075   11.5527 N.ar    1  UNL1       -0.1907
     18 C          64.9686   91.6353   12.8901 C.ar    1  UNL1        0.2033
     19 N          65.3397   92.6387   13.9415 N.ar    1  UNL1       -0.0560
     20 O          65.6670   93.9310   13.2539 O.2     1  UNL1       -0.3370
     21 C          62.8421   85.2123   11.3449 C.ar    1  UNL1        0.0344
     22 C          63.7659   84.5155   10.3906 C.ar    1  UNL1        0.0007
     23 C          63.6626   84.7807    8.9179 C.ar    1  UNL1       -0.0001
     24 C          62.6354   85.7429    8.3994 C.ar    1  UNL1        0.0031
     25 C          61.7114   86.4399    9.3537 C.ar    1  UNL1        0.0366
     26 C          61.8147   86.1746   10.8264 C.ar    1  UNL1        0.1365
     27 O          60.8908   86.8715   11.7806 O.3     1  UNL1       -0.4730
     28 C          59.8922   87.8658   11.2666 C.3     1  UNL1        0.2370
     29 C          60.1982   89.3332   11.3217 C.3     1  UNL1        0.1847
     30 O          60.2261   89.6953   12.7771 O.3     1  UNL1       -0.3784
     31 H          59.3705   89.4802   13.1803 H       1  UNL1        0.2106
     32 C          62.1767   82.3870   12.8363 C.2     1  UNL1        0.1732
     33 O          61.4890   82.4514   11.5048 O.2     1  UNL1       -0.2915
     34 C          62.4015   81.0613   13.5009 C.3     1  UNL1        0.0554
     35 C          60.9562   81.0160   13.8996 C.3     1  UNL1        0.0077
     36 C          63.8469   81.1065   13.1023 C.3     1  UNL1        0.0077
     37 C          62.6264   79.7355   14.1656 C.3     1  UNL1        0.0077
@<TRIPOS>BOND
     1    15    16    1
     2    16    17   ar
     3    17    18   ar
     4    18     9    1
     5     9    10   ar
     6    10    11   ar
     7    11    12   ar
     8    12     1    1
     9     1     2   am
    10     2     3    2
    11     2     4    1
    12     4     5    1
    13     4     6    2
    14     6    32    1
    15    32    33    2
    16    32    34    1
    17    34    35    1
    18    34    36    1
    19    34    37    1
    20     6     7    1
    21     7    21    1
    22    21    22   ar
    23    22    23   ar
    24    23    24   ar
    25    24    25   ar
    26    25    26   ar
    27    26    27    1
    28    27    28    1
    29    28    29    1
    30    29    30    1
    31    12    13   ar
    32    13    14   ar
    33    18    19   ar
    34    19    20   ar
    35    20    16   ar
    36    14     9   ar
    37     7     1    1
    38    26    21   ar
    39     5     8    1
    40    30    31    1
@<TRIPOS>MOLECULE
*****
 37 40 0 0 0
SMALL
GASTEIGER

@<TRIPOS>ATOM
      1 N          63.4363   86.8301   12.9000 N.am    1  UNL1       -0.2463
      2 C          64.2590   87.5045   13.9575 C.2     1  UNL1        0.2869
      3 O          65.0538   86.8172   15.0281 O.2     1  UNL1       -0.2662
      4 C          64.1475   88.9867   13.7566 C.2     1  UNL1        0.1887
      5 O          64.8111   90.0420   14.5908 O.2     1  UNL1       -0.5020
      6 C          63.2557   89.2284   12.5748 C.2     1  UNL1        0.0732
      7 C          62.8162   87.8955   12.0455 C.3     1  UNL1        0.1338
      8 H          65.3538   89.7952   15.3137 H       1  UNL1        0.2924
      9 C          62.9191   82.3900   12.3823 C.ar    1  UNL1        0.0392
     10 C          63.4469   83.2206   11.2503 C.ar    1  UNL1        0.0044
     11 C          63.6193   84.7006   11.4228 C.ar    1  UNL1        0.0150
     12 C          63.2639   85.3500   12.7274 C.ar    1  UNL1        0.0548
     13 C          62.7361   84.5193   13.8594 C.ar    1  UNL1        0.0150
     14 C          62.5637   83.0393   13.6869 C.ar    1  UNL1        0.0044
     15 C          62.7801   77.5666   10.2382 C.3     1  UNL1        0.0978
     16 C          62.6828   78.6929   11.2242 C.ar    1  UNL1        0.2371
     17 N          62.9712   80.1378   10.9434 N.ar    1  UNL1       -0.1907
     18 C          62.7467   80.9099   12.2097 C.ar    1  UNL1        0.2033
     19 N          62.3195   79.9421   13.2731 N.ar    1  UNL1       -0.0560
     20 O          62.2800   78.5719   12.6641 O.2     1  UNL1       -0.3370
     21 C          61.9149   87.6681   10.8682 C.ar    1  UNL1        0.0344
     22 C          62.4693   87.0913    9.5995 C.ar    1  UNL1        0.0007
     23 C          61.5680   86.8638    8.4223 C.ar    1  UNL1       -0.0001
     24 C          60.1121   87.2133    8.5138 C.ar    1  UNL1        0.0031
     25 C          59.5577   87.7901    9.7826 C.ar    1  UNL1        0.0366
     26 C          60.4590   88.0176   10.9599 C.ar    1  UNL1        0.1365
     27 O          59.9045   88.5944   12.2285 O.3     1  UNL1       -0.4730
     28 C          58.4477   88.9394   12.3217 C.3     1  UNL1        0.2370
     29 C          57.6549   88.5273   13.5265 C.3     1  UNL1        0.1847
     30 O          56.2510   88.3122   13.0438 O.3     1  UNL1       -0.3784
     31 H          55.9177   89.1305   12.6436 H       1  UNL1        0.2106
     32 C          62.8711   90.5679   12.0199 C.2     1  UNL1        0.1732
     33 O          61.4716   91.0785   12.1952 O.2     1  UNL1       -0.2915
     34 C          63.8859   91.3967   11.2896 C.3     1  UNL1        0.0554
     35 C          63.2935   90.9680    9.9799 C.3     1  UNL1        0.0077
     36 C          64.4783   91.8253   12.5993 C.3     1  UNL1        0.0077
     37 C          64.9007   92.2255   10.5594 C.3     1  UNL1        0.0077
@<TRIPOS>BOND
     1    15    16    1
     2    16    17   ar
     3    17    18   ar
     4    18     9    1
     5     9    10   ar
     6    10    11   ar
     7    11    12   ar
     8    12     1    1
     9     1     2   am
    10     2     3    2
    11     2     4    1
    12     4     5    1
    13     4     6    2
    14     6    32    1
    15    32    33    2
    16    32    34    1
    17    34    35    1
    18    34    36    1
    19    34    37    1
    20     6     7    1
    21     7    21    1
    22    21    22   ar
    23    22    23   ar
    24    23    24   ar
    25    24    25   ar
    26    25    26   ar
    27    26    27    1
    28    27    28    1
    29    28    29    1
    30    29    30    1
    31    12    13   ar
    32    13    14   ar
    33    18    19   ar
    34    19    20   ar
    35    20    16   ar
    36    14     9   ar
    37     7     1    1
    38    26    21   ar
    39     5     8    1
    40    30    31    1
@<TRIPOS>MOLECULE
*****
 37 40 0 0 0
SMALL
GASTEIGER

@<TRIPOS>ATOM
      1 N          64.5687   91.4800   12.3797 N.am    1  UNL1       -0.2463
      2 C          65.2943   92.6853   11.8593 C.2     1  UNL1        0.2869
      3 O          65.2025   93.2369   10.4675 O.2     1  UNL1       -0.2662
      4 C          66.1280   93.2420   12.9751 C.2     1  UNL1        0.1887
      5 O          67.0161   94.4481   12.8951 O.2     1  UNL1       -0.5020
      6 C          65.9175   92.3807   14.1851 C.2     1  UNL1        0.0732
      7 C          64.9538   91.2918   13.8171 C.3     1  UNL1        0.1338
      8 H          67.0852   94.9266   12.0924 H       1  UNL1        0.2924
      9 C          61.7340   88.8844   10.0393 C.ar    1  UNL1        0.0392
     10 C          62.0747   90.2588    9.5444 C.ar    1  UNL1        0.0044
     11 C          63.0196   91.1240   10.3245 C.ar    1  UNL1        0.0150
     12 C          63.6237   90.6148   11.5995 C.ar    1  UNL1        0.0548
     13 C          63.2830   89.2404   12.0944 C.ar    1  UNL1        0.0150
     14 C          62.3381   88.3752   11.3143 C.ar    1  UNL1        0.0044
     15 C          59.8316   85.1217    6.8606 C.3     1  UNL1        0.0978
     16 C          59.9146   86.2897    7.7981 C.ar    1  UNL1        0.2371
     17 N          61.1715   86.8664    8.3790 N.ar    1  UNL1       -0.1907
     18 C          60.7890   88.0192    9.2591 C.ar    1  UNL1        0.2033
     19 N          59.2956   88.1550    9.2222 N.ar    1  UNL1       -0.0560
     20 O          58.7552   87.0861    8.3192 O.2     1  UNL1       -0.3370
     21 C          64.4617   90.2054   14.7268 C.ar    1  UNL1        0.0344
     22 C          64.8910   88.7861   14.5008 C.ar    1  UNL1        0.0007
     23 C          64.3988   87.6997   15.4105 C.ar    1  UNL1       -0.0001
     24 C          63.4774   88.0327   16.5463 C.ar    1  UNL1        0.0031
     25 C          63.0482   89.4521   16.7724 C.ar    1  UNL1        0.0366
     26 C          63.5403   90.5385   15.8627 C.ar    1  UNL1        0.1365
     27 O          63.1110   91.9577   16.0888 O.3     1  UNL1       -0.4730
     28 C          63.3782   92.6212   17.4073 C.3     1  UNL1        0.2370
     29 C          62.9721   94.0487   17.6246 C.3     1  UNL1        0.1847
     30 O          61.5218   94.1275   17.2498 O.3     1  UNL1       -0.3784
     31 H          61.4104   93.8473   16.3279 H       1  UNL1        0.2106
     32 C          66.5583   92.5745   15.5275 C.2     1  UNL1        0.1732
     33 O          65.7054   92.8100   16.7387 O.2     1  UNL1       -0.2915
     34 C          68.0520   92.5327   15.6586 C.3     1  UNL1        0.0554
     35 C          68.0551   93.9719   16.0814 C.3     1  UNL1        0.0077
     36 C          68.0488   91.0935   15.2359 C.3     1  UNL1        0.0077
     37 C          69.5456   92.4910   15.7897 C.3     1  UNL1        0.0077
@<TRIPOS>BOND
     1    15    16    1
     2    16    17   ar
     3    17    18   ar
     4    18     9    1
     5     9    10   ar
     6    10    11   ar
     7    11    12   ar
     8    12     1    1
     9     1     2   am
    10     2     3    2
    11     2     4    1
    12     4     5    1
    13     4     6    2
    14     6    32    1
    15    32    33    2
    16    32    34    1
    17    34    35    1
    18    34    36    1
    19    34    37    1
    20     6     7    1
    21     7    21    1
    22    21    22   ar
    23    22    23   ar
    24    23    24   ar
    25    24    25   ar
    26    25    26   ar
    27    26    27    1
    28    27    28    1
    29    28    29    1
    30    29    30    1
    31    12    13   ar
    32    13    14   ar
    33    18    19   ar
    34    19    20   ar
    35    20    16   ar
    36    14     9   ar
    37     7     1    1
    38    26    21   ar
    39     5     8    1
    40    30    31    1
