@<TRIPOS>MOLECULE
*****
 34 37 0 0 0
SMALL
GASTEIGER

@<TRIPOS>ATOM
      1 N          60.6982   88.9427   11.1710 N.am    1  UNL1       -0.2533
      2 C          61.9288   89.6460   11.6618 C.2     1  UNL1        0.3092
      3 O          62.9142   90.2069   10.6796 O.2     1  UNL1       -0.2521
      4 N          62.1742   89.7885   13.1347 N.am    1  UNL1       -0.2680
      5 H          60.0515   88.5746   11.8156 H       1  UNL1        0.1578
      6 H          61.5275   89.4204   13.7793 H       1  UNL1        0.1564
      7 C          63.4048   90.4918   13.6254 C.ar    1  UNL1        0.0516
      8 C          64.2319   91.3068   12.6758 C.ar    1  UNL1        0.0148
      9 C          65.4625   92.0101   13.1665 C.ar    1  UNL1        0.0043
     10 C          65.8662   91.8985   14.6068 C.ar    1  UNL1        0.0360
     11 C          65.0392   91.0835   15.5564 C.ar    1  UNL1        0.0043
     12 C          63.8085   90.3801   15.0657 C.ar    1  UNL1        0.0148
     13 C          67.0969   92.6018   15.0975 C.ar    1  UNL1        0.1665
     14 N          67.1703   93.5372   16.2679 N.ar    1  UNL1       -0.1286
     15 N          68.5890   94.0067   16.3977 N.ar    1  UNL1       -0.1255
     16 C          69.3924   93.3615   15.3077 C.ar    1  UNL1        0.2027
     17 N          68.4702   92.4932   14.5041 N.ar    1  UNL1       -0.2909
     18 C          68.8539   91.6622   13.3157 C.3     1  UNL1        0.1336
     19 N          60.9014   87.6576    8.8360 N.ar    1  UNL1       -0.2162
     20 N          60.4416   87.9266    7.4338 N.ar    1  UNL1       -0.1683
     21 C          59.7088   89.2354    7.4293 C.ar    1  UNL1        0.0810
     22 C          59.7157   89.7753    8.8287 C.ar    1  UNL1        0.0509
     23 C          60.4528   88.8002    9.6981 C.ar    1  UNL1        0.1380
     24 C          63.9925   82.8547   10.6737 C.3     1  UNL1        0.0310
     25 C          63.2197   84.0554   10.2143 C.ar    1  UNL1       -0.0218
     26 C          63.3738   84.5534    8.8078 C.ar    1  UNL1       -0.0027
     27 C          62.6011   85.7541    8.3484 C.ar    1  UNL1        0.0189
     28 C          61.6742   86.4569    9.2954 C.ar    1  UNL1        0.0842
     29 C          61.5201   85.9589   10.7019 C.ar    1  UNL1        0.0189
     30 C          62.2928   84.7582   11.1613 C.ar    1  UNL1       -0.0027
     31 C          59.0795   89.8894    6.2350 C.3     1  UNL1        0.0372
     32 C          60.4084   90.4711    5.8534 C.3     1  UNL1        0.0060
     33 C          57.7506   89.3077    6.6166 C.3     1  UNL1        0.0060
     34 C          58.4503   90.5434    5.0407 C.3     1  UNL1        0.0060
@<TRIPOS>BOND
     1    24    25    1
     2    25    26   ar
     3    26    27   ar
     4    27    28   ar
     5    28    19    1
     6    19    20   ar
     7    20    21   ar
     8    21    31    1
     9    31    32    1
    10    31    33    1
    11    31    34    1
    12    21    22   ar
    13    22    23   ar
    14    23     1    1
    15     1     2   am
    16     2     3    2
    17     2     4   am
    18     4     7    1
    19     7     8   ar
    20     8     9   ar
    21     9    10   ar
    22    10    13    1
    23    13    14   ar
    24    14    15   ar
    25    15    16   ar
    26    16    17   ar
    27    17    18    1
    28    10    11   ar
    29    11    12   ar
    30    28    29   ar
    31    29    30   ar
    32    30    25   ar
    33    23    19   ar
    34    12     7   ar
    35    17    13   ar
    36     1     5    1
    37     4     6    1
@<TRIPOS>MOLECULE
*****
 34 37 0 0 0
SMALL
GASTEIGER

@<TRIPOS>ATOM
      1 N          62.7318   86.9599   13.9282 N.am    1  UNL1       -0.2533
      2 C          63.3636   88.0673   13.1382 C.2     1  UNL1        0.3092
      3 O          63.9167   87.7925   11.7712 O.2     1  UNL1       -0.2521
      4 N          63.4424   89.4497   13.7150 N.am    1  UNL1       -0.2680
      5 H          62.3688   87.1403   14.8254 H       1  UNL1        0.1578
      6 H          63.0794   89.6302   14.6122 H       1  UNL1        0.1564
      7 C          64.0743   90.5572   12.9249 C.ar    1  UNL1        0.0516
      8 C          63.5690   90.8805   11.5501 C.ar    1  UNL1        0.0148
      9 C          64.2008   91.9880   10.7600 C.ar    1  UNL1        0.0043
     10 C          65.3380   92.7722   11.3446 C.ar    1  UNL1        0.0360
     11 C          65.8433   92.4488   12.7195 C.ar    1  UNL1        0.0043
     12 C          65.2115   91.3414   13.5096 C.ar    1  UNL1        0.0148
     13 C          65.9699   93.8796   10.5546 C.ar    1  UNL1        0.1665
     14 N          65.4610   95.2864   10.4456 N.ar    1  UNL1       -0.1286
     15 N          66.3982   96.0510    9.5584 N.ar    1  UNL1       -0.1255
     16 C          67.4863   95.1167    9.1190 C.ar    1  UNL1        0.2027
     17 N          67.2216   93.7747    9.7347 N.ar    1  UNL1       -0.2909
     18 C          68.0612   92.5439    9.5610 C.3     1  UNL1        0.1336
     19 N          62.1046   85.2146   12.0031 N.ar    1  UNL1       -0.2162
     20 N          62.2214   83.7281   11.8401 N.ar    1  UNL1       -0.1683
     21 C          62.8419   83.1722   13.0874 C.ar    1  UNL1        0.0810
     22 C          63.1086   84.3152   14.0215 C.ar    1  UNL1        0.0509
     23 C          62.6529   85.5775   13.3513 C.ar    1  UNL1        0.1380
     24 C          59.8415   89.0380    7.9707 C.3     1  UNL1        0.0310
     25 C          60.4073   88.0822    8.9788 C.ar    1  UNL1       -0.0218
     26 C          61.3193   86.9770    8.5351 C.ar    1  UNL1       -0.0027
     27 C          61.8850   86.0212    9.5432 C.ar    1  UNL1        0.0189
     28 C          61.5388   86.1705   10.9950 C.ar    1  UNL1        0.0842
     29 C          60.6268   87.2756   11.4388 C.ar    1  UNL1        0.0189
     30 C          60.0611   88.2314   10.4307 C.ar    1  UNL1       -0.0027
     31 C          63.1428   81.7271   13.3540 C.3     1  UNL1        0.0372
     32 C          61.8885   81.6162   14.1691 C.3     1  UNL1        0.0060
     33 C          64.3971   81.8380   12.5388 C.3     1  UNL1        0.0060
     34 C          63.4438   80.2820   13.6205 C.3     1  UNL1        0.0060
@<TRIPOS>BOND
     1    24    25    1
     2    25    26   ar
     3    26    27   ar
     4    27    28   ar
     5    28    19    1
     6    19    20   ar
     7    20    21   ar
     8    21    31    1
     9    31    32    1
    10    31    33    1
    11    31    34    1
    12    21    22   ar
    13    22    23   ar
    14    23     1    1
    15     1     2   am
    16     2     3    2
    17     2     4   am
    18     4     7    1
    19     7     8   ar
    20     8     9   ar
    21     9    10   ar
    22    10    13    1
    23    13    14   ar
    24    14    15   ar
    25    15    16   ar
    26    16    17   ar
    27    17    18    1
    28    10    11   ar
    29    11    12   ar
    30    28    29   ar
    31    29    30   ar
    32    30    25   ar
    33    23    19   ar
    34    12     7   ar
    35    17    13   ar
    36     1     5    1
    37     4     6    1
@<TRIPOS>MOLECULE
*****
 34 37 0 0 0
SMALL
GASTEIGER

@<TRIPOS>ATOM
      1 N          62.7271   86.9693   13.8895 N.am    1  UNL1       -0.2533
      2 C          63.3618   88.0763   13.1013 C.2     1  UNL1        0.3092
      3 O          63.9195   87.8009   11.7363 O.2     1  UNL1       -0.2521
      4 N          63.4388   89.4589   13.6779 N.am    1  UNL1       -0.2680
      5 H          62.3610   87.1501   14.7854 H       1  UNL1        0.1578
      6 H          63.0728   89.6398   14.5738 H       1  UNL1        0.1564
      7 C          64.0736   90.5660   12.8896 C.ar    1  UNL1        0.0516
      8 C          65.2178   91.3413   13.4726 C.ar    1  UNL1        0.0148
      9 C          65.8525   92.4484   12.6842 C.ar    1  UNL1        0.0043
     10 C          65.3432   92.7802   11.3130 C.ar    1  UNL1        0.0360
     11 C          64.1990   92.0049   10.7300 C.ar    1  UNL1        0.0043
     12 C          63.5643   90.8978   11.5183 C.ar    1  UNL1        0.0148
     13 C          65.9780   93.8873   10.5247 C.ar    1  UNL1        0.1665
     14 N          65.4678   95.2933   10.4107 N.ar    1  UNL1       -0.1286
     15 N          66.4089   96.0577    9.5275 N.ar    1  UNL1       -0.1255
     16 C          67.5006   95.1242    9.0956 C.ar    1  UNL1        0.2027
     17 N          67.2343   93.7827    9.7119 N.ar    1  UNL1       -0.2909
     18 C          68.0765   92.5528    9.5448 C.3     1  UNL1        0.1336
     19 N          62.0994   85.2226   11.9660 N.ar    1  UNL1       -0.2162
     20 N          62.2191   83.7363   11.8027 N.ar    1  UNL1       -0.1683
     21 C          62.8437   83.1818   13.0487 C.ar    1  UNL1        0.0810
     22 C          63.1100   84.3254   13.9821 C.ar    1  UNL1        0.0509
     23 C          62.6500   85.5867   13.3129 C.ar    1  UNL1        0.1380
     24 C          59.8188   89.0407    7.9385 C.3     1  UNL1        0.0310
     25 C          60.3889   88.0862    8.9454 C.ar    1  UNL1       -0.0218
     26 C          60.0512   88.2389   10.3988 C.ar    1  UNL1       -0.0027
     27 C          60.6213   87.2844   11.4057 C.ar    1  UNL1        0.0189
     28 C          61.5293   86.1771   10.9591 C.ar    1  UNL1        0.0842
     29 C          61.8670   86.0243    9.5057 C.ar    1  UNL1        0.0189
     30 C          61.2969   86.9789    8.4988 C.ar    1  UNL1       -0.0027
     31 C          63.1484   81.7374   13.3146 C.3     1  UNL1        0.0372
     32 C          64.4000   81.8507   12.4956 C.3     1  UNL1        0.0060
     33 C          61.8969   81.6241   14.1336 C.3     1  UNL1        0.0060
     34 C          63.4532   80.2929   13.5805 C.3     1  UNL1        0.0060
@<TRIPOS>BOND
     1    24    25    1
     2    25    26   ar
     3    26    27   ar
     4    27    28   ar
     5    28    19    1
     6    19    20   ar
     7    20    21   ar
     8    21    31    1
     9    31    32    1
    10    31    33    1
    11    31    34    1
    12    21    22   ar
    13    22    23   ar
    14    23     1    1
    15     1     2   am
    16     2     3    2
    17     2     4   am
    18     4     7    1
    19     7     8   ar
    20     8     9   ar
    21     9    10   ar
    22    10    13    1
    23    13    14   ar
    24    14    15   ar
    25    15    16   ar
    26    16    17   ar
    27    17    18    1
    28    10    11   ar
    29    11    12   ar
    30    28    29   ar
    31    29    30   ar
    32    30    25   ar
    33    23    19   ar
    34    12     7   ar
    35    17    13   ar
    36     1     5    1
    37     4     6    1
@<TRIPOS>MOLECULE
*****
 34 37 0 0 0
SMALL
GASTEIGER

@<TRIPOS>ATOM
      1 N          63.7438   88.7752   15.2359 N.am    1  UNL1       -0.2533
      2 C          63.7116   87.5290   14.4017 C.2     1  UNL1        0.3092
      3 O          64.2707   87.5436   13.0098 O.2     1  UNL1       -0.2521
      4 N          63.1203   86.2683   14.9592 N.am    1  UNL1       -0.2680
      5 H          63.3768   88.7656   16.1494 H       1  UNL1        0.1578
      6 H          62.7533   86.2587   15.8727 H       1  UNL1        0.1564
      7 C          63.0881   85.0221   14.1249 C.ar    1  UNL1        0.0516
      8 C          62.6096   85.0826   12.7045 C.ar    1  UNL1        0.0148
      9 C          62.5775   83.8365   11.8702 C.ar    1  UNL1        0.0043
     10 C          63.0238   82.5298   12.4562 C.ar    1  UNL1        0.0360
     11 C          63.5022   82.4693   13.8765 C.ar    1  UNL1        0.0043
     12 C          63.5344   83.7154   14.7108 C.ar    1  UNL1        0.0148
     13 C          62.9916   81.2837   11.6219 C.ar    1  UNL1        0.1665
     14 N          63.3257   81.1908   10.1625 N.ar    1  UNL1       -0.1286
     15 N          63.1602   79.7614    9.7391 N.ar    1  UNL1       -0.1255
     16 C          62.7240   78.9707   10.9368 C.ar    1  UNL1        0.2027
     17 N          62.6197   79.9116   12.1005 N.ar    1  UNL1       -0.2909
     18 C          62.2147   79.5447   13.4974 C.3     1  UNL1        0.1336
     19 N          63.9539   90.6914   13.3842 N.ar    1  UNL1       -0.2162
     20 N          64.7947   91.9231   13.2233 N.ar    1  UNL1       -0.1683
     21 C          65.6955   92.0290   14.4180 C.ar    1  UNL1        0.0810
     22 C          65.4114   90.8626   15.3174 C.ar    1  UNL1        0.0509
     23 C          64.3351   90.0359   14.6784 C.ar    1  UNL1        0.1380
     24 C          59.7963   88.7306    9.5281 C.3     1  UNL1        0.0310
     25 C          60.8357   89.2208   10.4921 C.ar    1  UNL1       -0.0218
     26 C          60.4931   89.3896   11.9427 C.ar    1  UNL1       -0.0027
     27 C          61.5325   89.8798   12.9067 C.ar    1  UNL1        0.0189
     28 C          62.9145   90.2012   12.4202 C.ar    1  UNL1        0.0842
     29 C          63.2571   90.0324   10.9697 C.ar    1  UNL1        0.0189
     30 C          62.2177   89.5422   10.0056 C.ar    1  UNL1       -0.0027
     31 C          66.7033   93.1111   14.6692 C.3     1  UNL1        0.0372
     32 C          66.5560   93.5775   13.2512 C.3     1  UNL1        0.0060
     33 C          66.8506   92.6448   16.0873 C.3     1  UNL1        0.0060
     34 C          67.7111   94.1933   14.9205 C.3     1  UNL1        0.0060
@<TRIPOS>BOND
     1    24    25    1
     2    25    26   ar
     3    26    27   ar
     4    27    28   ar
     5    28    19    1
     6    19    20   ar
     7    20    21   ar
     8    21    31    1
     9    31    32    1
    10    31    33    1
    11    31    34    1
    12    21    22   ar
    13    22    23   ar
    14    23     1    1
    15     1     2   am
    16     2     3    2
    17     2     4   am
    18     4     7    1
    19     7     8   ar
    20     8     9   ar
    21     9    10   ar
    22    10    13    1
    23    13    14   ar
    24    14    15   ar
    25    15    16   ar
    26    16    17   ar
    27    17    18    1
    28    10    11   ar
    29    11    12   ar
    30    28    29   ar
    31    29    30   ar
    32    30    25   ar
    33    23    19   ar
    34    12     7   ar
    35    17    13   ar
    36     1     5    1
    37     4     6    1
@<TRIPOS>MOLECULE
*****
 34 37 0 0 0
SMALL
GASTEIGER

@<TRIPOS>ATOM
      1 N          61.7375   88.1499   12.1513 N.am    1  UNL1       -0.2533
      2 C          62.9444   88.8713   12.6736 C.2     1  UNL1        0.3092
      3 O          64.2853   88.1991   12.6577 O.2     1  UNL1       -0.2521
      4 N          62.8106   90.2651   13.2117 N.am    1  UNL1       -0.2680
      5 H          60.8575   88.5911   12.1617 H       1  UNL1        0.1578
      6 H          61.9305   90.7063   13.2221 H       1  UNL1        0.1564
      7 C          64.0175   90.9865   13.7340 C.ar    1  UNL1        0.0516
      8 C          64.9421   91.6873   12.7832 C.ar    1  UNL1        0.0148
      9 C          66.1491   92.4087   13.3054 C.ar    1  UNL1        0.0043
     10 C          66.4315   92.4294   14.7784 C.ar    1  UNL1        0.0360
     11 C          65.5069   91.7286   15.7292 C.ar    1  UNL1        0.0043
     12 C          64.2999   91.0072   15.2070 C.ar    1  UNL1        0.0148
     13 C          67.6385   93.1509   15.3007 C.ar    1  UNL1        0.1665
     14 N          67.6408   94.2147   16.3582 N.ar    1  UNL1       -0.1286
     15 N          69.0588   94.6564   16.5682 N.ar    1  UNL1       -0.1255
     16 C          69.9328   93.8657   15.6405 C.ar    1  UNL1        0.2027
     17 N          69.0550   92.9352   14.8571 N.ar    1  UNL1       -0.2909
     18 C          69.5133   91.9602   13.8134 C.3     1  UNL1        0.1336
     19 N          61.3978   86.2796   10.2720 N.ar    1  UNL1       -0.2162
     20 N          61.7360   84.8232   10.1517 N.ar    1  UNL1       -0.1683
     21 C          62.4186   84.3997   11.4184 C.ar    1  UNL1        0.0810
     22 C          62.5023   85.5943   12.3217 C.ar    1  UNL1        0.0509
     23 C          61.8713   86.7562   11.6131 C.ar    1  UNL1        0.1380
     24 C          58.6356   89.6137    6.1182 C.3     1  UNL1        0.0310
     25 C          59.3261   88.7802    7.1566 C.ar    1  UNL1       -0.0218
     26 C          59.2028   87.2857    7.1224 C.ar    1  UNL1       -0.0027
     27 C          59.8934   86.4522    8.1609 C.ar    1  UNL1        0.0189
     28 C          60.7072   87.1131    9.2335 C.ar    1  UNL1        0.0842
     29 C          60.8305   88.6076    9.2678 C.ar    1  UNL1        0.0189
     30 C          60.1400   89.4412    8.2293 C.ar    1  UNL1       -0.0027
     31 C          62.9281   83.0231   11.7276 C.3     1  UNL1        0.0372
     32 C          63.4404   82.8973   10.3235 C.3     1  UNL1        0.0060
     33 C          62.4158   83.1489   13.1318 C.3     1  UNL1        0.0060
     34 C          63.4376   81.6466   12.0368 C.3     1  UNL1        0.0060
@<TRIPOS>BOND
     1    24    25    1
     2    25    26   ar
     3    26    27   ar
     4    27    28   ar
     5    28    19    1
     6    19    20   ar
     7    20    21   ar
     8    21    31    1
     9    31    32    1
    10    31    33    1
    11    31    34    1
    12    21    22   ar
    13    22    23   ar
    14    23     1    1
    15     1     2   am
    16     2     3    2
    17     2     4   am
    18     4     7    1
    19     7     8   ar
    20     8     9   ar
    21     9    10   ar
    22    10    13    1
    23    13    14   ar
    24    14    15   ar
    25    15    16   ar
    26    16    17   ar
    27    17    18    1
    28    10    11   ar
    29    11    12   ar
    30    28    29   ar
    31    29    30   ar
    32    30    25   ar
    33    23    19   ar
    34    12     7   ar
    35    17    13   ar
    36     1     5    1
    37     4     6    1
@<TRIPOS>MOLECULE
*****
 34 37 0 0 0
SMALL
GASTEIGER

@<TRIPOS>ATOM
      1 N          64.5895   90.6560   13.8474 N.am    1  UNL1       -0.2533
      2 C          64.2678   89.2126   13.5965 C.2     1  UNL1        0.3092
      3 O          64.1227   88.7098   12.1906 O.2     1  UNL1       -0.2521
      4 N          64.0910   88.2718   14.7513 N.am    1  UNL1       -0.2680
      5 H          64.6847   90.9859   14.7700 H       1  UNL1        0.1578
      6 H          64.1862   88.6017   15.6740 H       1  UNL1        0.1564
      7 C          63.7692   86.8284   14.5004 C.ar    1  UNL1        0.0516
      8 C          63.9762   85.8141   15.5859 C.ar    1  UNL1        0.0148
      9 C          63.6544   84.3707   15.3349 C.ar    1  UNL1        0.0043
     10 C          63.1256   83.9415   13.9985 C.ar    1  UNL1        0.0360
     11 C          62.9186   84.9558   12.9130 C.ar    1  UNL1        0.0043
     12 C          63.2404   86.3992   13.1639 C.ar    1  UNL1        0.0148
     13 C          62.8038   82.4981   13.7475 C.ar    1  UNL1        0.1665
     14 N          61.9790   81.6117   14.6330 N.ar    1  UNL1       -0.1286
     15 N          61.9157   80.2535   13.9998 N.ar    1  UNL1       -0.1255
     16 C          62.7014   80.3003   12.7229 C.ar    1  UNL1        0.2027
     17 N          63.2503   81.6876   12.5670 N.ar    1  UNL1       -0.2909
     18 C          64.0970   82.1782   11.4301 C.3     1  UNL1        0.1336
     19 N          63.9239   91.6382   11.4521 N.ar    1  UNL1       -0.2162
     20 N          64.4535   92.7283   10.5684 N.ar    1  UNL1       -0.1683
     21 C          65.6233   93.3606   11.2625 C.ar    1  UNL1        0.0810
     22 C          65.8166   92.6612   12.5753 C.ar    1  UNL1        0.0509
     23 C          64.7663   91.5967   12.6925 C.ar    1  UNL1        0.1380
     24 C          59.2553   88.0700   10.2388 C.3     1  UNL1        0.0310
     25 C          60.4224   88.9621   10.5421 C.ar    1  UNL1       -0.0218
     26 C          61.5914   89.0129    9.6036 C.ar    1  UNL1       -0.0027
     27 C          62.7585   89.9050    9.9069 C.ar    1  UNL1        0.0189
     28 C          62.7567   90.7462   11.1488 C.ar    1  UNL1        0.0842
     29 C          61.5878   90.6953   12.0873 C.ar    1  UNL1        0.0189
     30 C          60.4206   89.8033   11.7840 C.ar    1  UNL1       -0.0027
     31 C          66.4539   94.4934   10.7362 C.3     1  UNL1        0.0372
     32 C          66.9417   93.6174    9.6206 C.3     1  UNL1        0.0060
     33 C          65.9661   95.3694   11.8519 C.3     1  UNL1        0.0060
     34 C          67.2845   95.6261   10.2100 C.3     1  UNL1        0.0060
@<TRIPOS>BOND
     1    24    25    1
     2    25    26   ar
     3    26    27   ar
     4    27    28   ar
     5    28    19    1
     6    19    20   ar
     7    20    21   ar
     8    21    31    1
     9    31    32    1
    10    31    33    1
    11    31    34    1
    12    21    22   ar
    13    22    23   ar
    14    23     1    1
    15     1     2   am
    16     2     3    2
    17     2     4   am
    18     4     7    1
    19     7     8   ar
    20     8     9   ar
    21     9    10   ar
    22    10    13    1
    23    13    14   ar
    24    14    15   ar
    25    15    16   ar
    26    16    17   ar
    27    17    18    1
    28    10    11   ar
    29    11    12   ar
    30    28    29   ar
    31    29    30   ar
    32    30    25   ar
    33    23    19   ar
    34    12     7   ar
    35    17    13   ar
    36     1     5    1
    37     4     6    1
@<TRIPOS>MOLECULE
*****
 34 37 0 0 0
SMALL
GASTEIGER

@<TRIPOS>ATOM
      1 N          62.0639   85.6889   11.9408 N.am    1  UNL1       -0.2533
      2 C          62.9343   86.7707   12.5082 C.2     1  UNL1        0.3092
      3 O          64.0605   86.4188   13.4344 O.2     1  UNL1       -0.2521
      4 N          62.6786   88.2046   12.1495 N.am    1  UNL1       -0.2680
      5 H          61.3247   85.9200   11.3330 H       1  UNL1        0.1578
      6 H          61.9395   88.4357   11.5416 H       1  UNL1        0.1564
      7 C          63.5491   89.2864   12.7169 C.ar    1  UNL1        0.0516
      8 C          64.1987   89.1011   14.0561 C.ar    1  UNL1        0.0148
      9 C          65.0692   90.1829   14.6236 C.ar    1  UNL1        0.0043
     10 C          65.2901   91.4500   13.8518 C.ar    1  UNL1        0.0360
     11 C          64.6404   91.6353   12.5125 C.ar    1  UNL1        0.0043
     12 C          63.7699   90.5535   11.9451 C.ar    1  UNL1        0.0148
     13 C          66.1606   92.5318   14.4192 C.ar    1  UNL1        0.1665
     14 N          66.7378   92.5639   15.8034 N.ar    1  UNL1       -0.1286
     15 N          67.5406   93.8233   15.9417 N.ar    1  UNL1       -0.1255
     16 C          67.4596   94.5697   14.6431 C.ar    1  UNL1        0.2027
     17 N          66.6067   93.7714   13.7021 N.ar    1  UNL1       -0.2909
     18 C          66.2606   94.1469   12.2917 C.3     1  UNL1        0.1336
     19 N          62.5732   83.7231   13.6789 N.ar    1  UNL1       -0.2162
     20 N          62.7769   82.2407   13.5737 N.ar    1  UNL1       -0.1683
     21 C          62.6491   81.8565   12.1294 C.ar    1  UNL1        0.0810
     22 C          62.3665   83.1015   11.3419 C.ar    1  UNL1        0.0509
     23 C          62.3196   84.2551   12.2996 C.ar    1  UNL1        0.1380
     24 C          62.7431   86.9567   18.7302 C.3     1  UNL1        0.0310
     25 C          62.7006   86.1483   17.4674 C.ar    1  UNL1       -0.0218
     26 C          61.3941   85.9191   16.7671 C.ar    1  UNL1       -0.0027
     27 C          61.3516   85.1107   15.5043 C.ar    1  UNL1        0.0189
     28 C          62.6157   84.5315   14.9417 C.ar    1  UNL1        0.0842
     29 C          63.9222   84.7606   15.6420 C.ar    1  UNL1        0.0189
     30 C          63.9647   85.5690   16.9048 C.ar    1  UNL1       -0.0027
     31 C          62.7809   80.4707   11.5707 C.3     1  UNL1        0.0372
     32 C          63.1800   81.0439   10.2432 C.3     1  UNL1        0.0060
     33 C          62.3819   79.8976   12.8981 C.3     1  UNL1        0.0060
     34 C          62.9127   79.0849   11.0119 C.3     1  UNL1        0.0060
@<TRIPOS>BOND
     1    24    25    1
     2    25    26   ar
     3    26    27   ar
     4    27    28   ar
     5    28    19    1
     6    19    20   ar
     7    20    21   ar
     8    21    31    1
     9    31    32    1
    10    31    33    1
    11    31    34    1
    12    21    22   ar
    13    22    23   ar
    14    23     1    1
    15     1     2   am
    16     2     3    2
    17     2     4   am
    18     4     7    1
    19     7     8   ar
    20     8     9   ar
    21     9    10   ar
    22    10    13    1
    23    13    14   ar
    24    14    15   ar
    25    15    16   ar
    26    16    17   ar
    27    17    18    1
    28    10    11   ar
    29    11    12   ar
    30    28    29   ar
    31    29    30   ar
    32    30    25   ar
    33    23    19   ar
    34    12     7   ar
    35    17    13   ar
    36     1     5    1
    37     4     6    1
@<TRIPOS>MOLECULE
*****
 34 37 0 0 0
SMALL
GASTEIGER

@<TRIPOS>ATOM
      1 N          61.6086   85.4345   11.7411 N.am    1  UNL1       -0.2533
      2 C          62.4763   86.6250   12.0236 C.2     1  UNL1        0.3092
      3 O          63.8173   86.4393   12.6697 O.2     1  UNL1       -0.2521
      4 N          62.0031   88.0012   11.6601 N.am    1  UNL1       -0.2680
      5 H          60.7285   85.5565   11.3171 H       1  UNL1        0.1578
      6 H          61.1230   88.1231   11.2361 H       1  UNL1        0.1564
      7 C          62.8709   89.1916   11.9427 C.ar    1  UNL1        0.0516
      8 C          63.0812   90.2344   10.8852 C.ar    1  UNL1        0.0148
      9 C          63.9489   91.4249   11.1677 C.ar    1  UNL1        0.0043
     10 C          64.6064   91.5726   12.5078 C.ar    1  UNL1        0.0360
     11 C          64.3961   90.5298   13.5653 C.ar    1  UNL1        0.0043
     12 C          63.5284   89.3394   13.2828 C.ar    1  UNL1        0.0148
     13 C          65.4742   92.7630   12.7904 C.ar    1  UNL1        0.1665
     14 N          65.8422   93.8381   11.8112 N.ar    1  UNL1       -0.1286
     15 N          66.7217   94.8269   12.5174 N.ar    1  UNL1       -0.1255
     16 C          66.8972   94.3630   13.9330 C.ar    1  UNL1        0.2027
     17 N          66.1262   93.0874   14.1017 N.ar    1  UNL1       -0.2909
     18 C          66.0249   92.2783   15.3607 C.3     1  UNL1        0.1336
     19 N          62.5670   83.6208   13.4548 N.ar    1  UNL1       -0.2162
     20 N          62.9379   82.1701   13.3663 N.ar    1  UNL1       -0.1683
     21 C          62.6819   81.7110   11.9614 C.ar    1  UNL1        0.0810
     22 C          62.1528   82.8780   11.1816 C.ar    1  UNL1        0.0509
     23 C          62.0818   84.0583   12.1046 C.ar    1  UNL1        0.1380
     24 C          62.9561   87.0682   18.3501 C.3     1  UNL1        0.0310
     25 C          62.8588   86.2064   17.1263 C.ar    1  UNL1       -0.0218
     26 C          64.1049   85.7786   16.4092 C.ar    1  UNL1       -0.0027
     27 C          64.0077   84.9167   15.1854 C.ar    1  UNL1        0.0189
     28 C          62.6643   84.4826   14.6786 C.ar    1  UNL1        0.0842
     29 C          61.4182   84.9104   15.3956 C.ar    1  UNL1        0.0189
     30 C          61.5155   85.7723   16.6195 C.ar    1  UNL1       -0.0027
     31 C          62.9142   80.3278   11.4297 C.3     1  UNL1        0.0372
     32 C          62.5932   79.7554   12.7785 C.3     1  UNL1        0.0060
     33 C          63.2352   80.9002   10.0809 C.3     1  UNL1        0.0060
     34 C          63.1465   78.9446   10.8980 C.3     1  UNL1        0.0060
@<TRIPOS>BOND
     1    24    25    1
     2    25    26   ar
     3    26    27   ar
     4    27    28   ar
     5    28    19    1
     6    19    20   ar
     7    20    21   ar
     8    21    31    1
     9    31    32    1
    10    31    33    1
    11    31    34    1
    12    21    22   ar
    13    22    23   ar
    14    23     1    1
    15     1     2   am
    16     2     3    2
    17     2     4   am
    18     4     7    1
    19     7     8   ar
    20     8     9   ar
    21     9    10   ar
    22    10    13    1
    23    13    14   ar
    24    14    15   ar
    25    15    16   ar
    26    16    17   ar
    27    17    18    1
    28    10    11   ar
    29    11    12   ar
    30    28    29   ar
    31    29    30   ar
    32    30    25   ar
    33    23    19   ar
    34    12     7   ar
    35    17    13   ar
    36     1     5    1
    37     4     6    1
@<TRIPOS>MOLECULE
*****
 34 37 0 0 0
SMALL
GASTEIGER

@<TRIPOS>ATOM
      1 N          61.5060   86.2562   12.1169 N.am    1  UNL1       -0.2533
      2 C          62.4259   87.4147   11.8693 C.2     1  UNL1        0.3092
      3 O          63.9080   87.1941   11.7999 O.2     1  UNL1       -0.2521
      4 N          61.8639   88.7940   11.6910 N.am    1  UNL1       -0.2680
      5 H          60.5332   86.4011   12.1625 H       1  UNL1        0.1578
      6 H          60.8911   88.9389   11.7365 H       1  UNL1        0.1564
      7 C          62.7839   89.9525   11.4433 C.ar    1  UNL1        0.0516
      8 C          63.6965   90.4319   12.5330 C.ar    1  UNL1        0.0148
      9 C          64.6165   91.5904   12.2854 C.ar    1  UNL1        0.0043
     10 C          64.6240   92.2696   10.9480 C.ar    1  UNL1        0.0360
     11 C          63.7114   91.7903    9.8583 C.ar    1  UNL1        0.0043
     12 C          62.7914   90.6318   10.1060 C.ar    1  UNL1        0.0148
     13 C          65.5440   93.4282   10.7004 C.ar    1  UNL1        0.1665
     14 N          65.1966   94.8790   10.8565 N.ar    1  UNL1       -0.1286
     15 N          66.4108   95.6868   10.5057 N.ar    1  UNL1       -0.1255
     16 C          67.5087   94.7352   10.1327 C.ar    1  UNL1        0.2027
     17 N          66.9730   93.3392   10.2530 N.ar    1  UNL1       -0.2909
     18 C          67.7328   92.0762    9.9748 C.3     1  UNL1        0.1336
     19 N          62.5914   84.2969   13.5757 N.ar    1  UNL1       -0.2162
     20 N          63.0522   82.8971   13.2961 N.ar    1  UNL1       -0.1683
     21 C          62.8134   82.6119   11.8430 C.ar    1  UNL1        0.0810
     22 C          62.2052   83.8356   11.2244 C.ar    1  UNL1        0.0509
     23 C          62.0680   84.8769   12.2952 C.ar    1  UNL1        0.1380
     24 C          62.8050   87.0863   18.8835 C.3     1  UNL1        0.0310
     25 C          62.7516   86.3890   17.5566 C.ar    1  UNL1       -0.0218
     26 C          61.4380   85.9104   17.0131 C.ar    1  UNL1       -0.0027
     27 C          61.3846   85.2130   15.6862 C.ar    1  UNL1        0.0189
     28 C          62.6448   84.9943   14.9026 C.ar    1  UNL1        0.0842
     29 C          63.9584   85.4729   15.4461 C.ar    1  UNL1        0.0189
     30 C          64.0118   86.1702   16.7730 C.ar    1  UNL1       -0.0027
     31 C          63.1278   81.3285   11.1330 C.3     1  UNL1        0.0372
     32 C          63.7834   82.1009   10.0269 C.3     1  UNL1        0.0060
     33 C          62.4722   80.5561   12.2392 C.3     1  UNL1        0.0060
     34 C          63.4421   80.0451   10.4231 C.3     1  UNL1        0.0060
@<TRIPOS>BOND
     1    24    25    1
     2    25    26   ar
     3    26    27   ar
     4    27    28   ar
     5    28    19    1
     6    19    20   ar
     7    20    21   ar
     8    21    31    1
     9    31    32    1
    10    31    33    1
    11    31    34    1
    12    21    22   ar
    13    22    23   ar
    14    23     1    1
    15     1     2   am
    16     2     3    2
    17     2     4   am
    18     4     7    1
    19     7     8   ar
    20     8     9   ar
    21     9    10   ar
    22    10    13    1
    23    13    14   ar
    24    14    15   ar
    25    15    16   ar
    26    16    17   ar
    27    17    18    1
    28    10    11   ar
    29    11    12   ar
    30    28    29   ar
    31    29    30   ar
    32    30    25   ar
    33    23    19   ar
    34    12     7   ar
    35    17    13   ar
    36     1     5    1
    37     4     6    1
