@<TRIPOS>MOLECULE
*****
 34 37 0 0 0
SMALL
GASTEIGER

@<TRIPOS>ATOM
      1 C          64.1685   89.3778   15.1883 C.ar    1  UNL1        0.0846
      2 C          63.2473   89.5524   16.3593 C.ar    1  UNL1        0.0192
      3 C          62.6901   88.3495   17.0611 C.ar    1  UNL1        0.0017
      4 C          63.0540   86.9720   16.5920 C.ar    1  UNL1        0.0046
      5 C          63.9751   86.7974   15.4211 C.ar    1  UNL1        0.0549
      6 C          64.5324   88.0003   14.7193 C.ar    1  UNL1        0.0237
      7 C          64.2599   91.1278   13.1699 C.ar    1  UNL1        0.1651
      8 N          65.0929   92.3329   12.8479 N.ar    1  UNL1       -0.2101
      9 C          66.0737   92.5306   13.9655 C.ar    1  UNL1        0.1612
     10 C          67.1010   93.6199   14.0546 C.3     1  UNL1        0.0756
     11 N          65.8468   91.4476   14.9783 N.ar    1  UNL1       -0.1488
     12 N          64.7258   90.5807   14.4865 N.ar    1  UNL1       -0.2111
     13 C          60.9450   89.4486   10.6317 C.ar    1  UNL1        0.1387
     14 C          62.1648   90.0320    9.9824 C.ar    1  UNL1        0.0370
     15 C          63.2698   90.5917   10.8285 C.ar    1  UNL1        0.0062
     16 C          63.1549   90.5680   12.3238 C.ar    1  UNL1        0.0361
     17 C          61.9351   89.9846   12.9731 C.ar    1  UNL1        0.0062
     18 C          60.8302   89.4249   12.1271 C.ar    1  UNL1        0.0370
     19 C          59.8639   89.0805    8.2982 C.3     1  UNL1        0.2525
     20 O          59.8401   88.8889    9.7857 O.3     1  UNL1       -0.4714
     21 C          64.3390   85.4199   14.9520 C.2     1  UNL1        0.2459
     22 O          65.7480   85.1170   14.5360 O.2     1  UNL1       -0.2701
     23 N          63.2939   84.3452   14.8990 N.am    1  UNL1       -0.3009
     24 H          62.3692   84.5439   15.1720 H       1  UNL1        0.1497
     25 C          63.6578   82.9677   14.4299 C.3     1  UNL1        0.0897
     26 C          64.4683   82.7906   13.1801 C.3     1  UNL1        0.0216
     27 C          63.8861   82.0614   12.0057 C.3     1  UNL1        0.0064
     28 C          64.0972   82.5872   10.6168 C.3     1  UNL1        0.0264
     29 C          63.4159   83.8508   10.1817 C.ar    1  UNL1       -0.0222
     30 C          62.6093   84.6451   11.1658 C.ar    1  UNL1       -0.0043
     31 C          61.9281   85.9087   10.7306 C.ar    1  UNL1       -0.0003
     32 C          62.0534   86.3779    9.3115 C.ar    1  UNL1       -0.0000
     33 C          62.8600   85.5836    8.3274 C.ar    1  UNL1       -0.0003
     34 C          63.5412   84.3201    8.7624 C.ar    1  UNL1       -0.0043
@<TRIPOS>BOND
     1    19    20    1
     2    20    13    1
     3    13    14   ar
     4    14    15   ar
     5    15    16   ar
     6    16     7    1
     7     7     8   ar
     8     8     9   ar
     9     9    10    1
    10     9    11   ar
    11    11    12   ar
    12    12     1    1
    13     1     2   ar
    14     2     3   ar
    15     3     4   ar
    16     4     5   ar
    17     5    21    1
    18    21    22    2
    19    21    23   am
    20    23    25    1
    21    25    26    1
    22    26    27    1
    23    27    28    1
    24    28    29    1
    25    29    30   ar
    26    30    31   ar
    27    31    32   ar
    28    32    33   ar
    29    33    34   ar
    30     5     6   ar
    31    16    17   ar
    32    17    18   ar
    33    18    13   ar
    34    12     7   ar
    35     6     1   ar
    36    34    29   ar
    37    23    24    1
@<TRIPOS>MOLECULE
*****
 34 37 0 0 0
SMALL
GASTEIGER

@<TRIPOS>ATOM
      1 C          62.3396   90.1759   11.2983 C.ar    1  UNL1        0.0846
      2 C          60.9967   90.5635   11.8429 C.ar    1  UNL1        0.0192
      3 C          59.7892   89.7336   11.5217 C.ar    1  UNL1        0.0017
      4 C          59.9245   88.5163   10.6558 C.ar    1  UNL1        0.0046
      5 C          61.2673   88.1287   10.1113 C.ar    1  UNL1        0.0549
      6 C          62.4749   88.9586   10.4325 C.ar    1  UNL1        0.0237
      7 C          64.3165   90.9816   12.9070 C.ar    1  UNL1        0.1651
      8 N          65.4421   91.9664   12.7929 N.ar    1  UNL1       -0.2101
      9 C          65.3686   92.5992   11.4349 C.ar    1  UNL1        0.1612
     10 C          66.3023   93.6424   10.8966 C.3     1  UNL1        0.0756
     11 N          64.1974   92.0055   10.7097 N.ar    1  UNL1       -0.1488
     12 N          63.5472   91.0058   11.6196 N.ar    1  UNL1       -0.2111
     13 C          63.4070   88.4069   16.4839 C.ar    1  UNL1        0.1387
     14 C          63.1831   89.8886   16.5500 C.ar    1  UNL1        0.0370
     15 C          63.4863   90.7468   15.3577 C.ar    1  UNL1        0.0062
     16 C          64.0133   90.1234   14.0993 C.ar    1  UNL1        0.0361
     17 C          64.2371   88.6417   14.0332 C.ar    1  UNL1        0.0062
     18 C          63.9340   87.7834   15.2255 C.ar    1  UNL1        0.0370
     19 C          62.3767   86.2487   17.4991 C.3     1  UNL1        0.2525
     20 O          63.1038   87.5487   17.6762 O.3     1  UNL1       -0.4714
     21 C          61.4026   86.9113    9.2454 C.2     1  UNL1        0.2459
     22 O          60.1793   86.2563    8.6759 O.2     1  UNL1       -0.2701
     23 N          62.7613   86.3490    8.9491 N.am    1  UNL1       -0.3009
     24 H          63.5642   86.7789    9.3229 H       1  UNL1        0.1497
     25 C          62.8966   85.1316    8.0833 C.3     1  UNL1        0.0897
     26 C          63.2709   83.8141    8.6949 C.3     1  UNL1        0.0216
     27 C          64.0847   83.7761    9.9544 C.3     1  UNL1        0.0064
     28 C          63.9711   82.6057   10.8857 C.3     1  UNL1        0.0264
     29 C          63.4881   82.8097   12.2911 C.ar    1  UNL1       -0.0222
     30 C          62.5176   81.8407   12.8987 C.ar    1  UNL1       -0.0043
     31 C          62.0346   82.0448   14.3041 C.ar    1  UNL1       -0.0003
     32 C          62.5221   83.2178   15.1019 C.ar    1  UNL1       -0.0000
     33 C          63.4925   84.1868   14.4942 C.ar    1  UNL1       -0.0003
     34 C          63.9755   83.9828   13.0889 C.ar    1  UNL1       -0.0043
@<TRIPOS>BOND
     1    19    20    1
     2    20    13    1
     3    13    14   ar
     4    14    15   ar
     5    15    16   ar
     6    16     7    1
     7     7     8   ar
     8     8     9   ar
     9     9    10    1
    10     9    11   ar
    11    11    12   ar
    12    12     1    1
    13     1     2   ar
    14     2     3   ar
    15     3     4   ar
    16     4     5   ar
    17     5    21    1
    18    21    22    2
    19    21    23   am
    20    23    25    1
    21    25    26    1
    22    26    27    1
    23    27    28    1
    24    28    29    1
    25    29    30   ar
    26    30    31   ar
    27    31    32   ar
    28    32    33   ar
    29    33    34   ar
    30     5     6   ar
    31    16    17   ar
    32    17    18   ar
    33    18    13   ar
    34    12     7   ar
    35     6     1   ar
    36    34    29   ar
    37    23    24    1
@<TRIPOS>MOLECULE
*****
 34 37 0 0 0
SMALL
GASTEIGER

@<TRIPOS>ATOM
      1 C          62.7653   83.5977   11.2468 C.ar    1  UNL1        0.0846
      2 C          63.7115   83.4666   10.0901 C.ar    1  UNL1        0.0192
      3 C          63.7170   84.5018    9.0046 C.ar    1  UNL1        0.0017
      4 C          62.7763   85.6680    9.0756 C.ar    1  UNL1        0.0046
      5 C          61.8302   85.7990   10.2321 C.ar    1  UNL1        0.0549
      6 C          61.8247   84.7638   11.3177 C.ar    1  UNL1        0.0237
      7 C          62.9676   82.8184   13.7956 C.ar    1  UNL1        0.1651
      8 N          62.8818   81.5037   14.5128 N.ar    1  UNL1       -0.2101
      9 C          62.6211   80.4353   13.4927 C.ar    1  UNL1        0.1612
     10 C          62.4635   78.9699   13.7713 C.3     1  UNL1        0.0756
     11 N          62.5458   81.0897   12.1450 N.ar    1  UNL1       -0.1488
     12 N          62.7599   82.5625   12.3323 N.ar    1  UNL1       -0.2111
     13 C          63.7164   86.8262   15.6999 C.ar    1  UNL1        0.1387
     14 C          62.7662   85.8578   16.3395 C.ar    1  UNL1        0.0370
     15 C          62.5166   84.5218   15.7048 C.ar    1  UNL1        0.0062
     16 C          63.2172   84.1543   14.4304 C.ar    1  UNL1        0.0361
     17 C          64.1673   85.1228   13.7908 C.ar    1  UNL1        0.0062
     18 C          64.4170   86.4588   14.4255 C.ar    1  UNL1        0.0370
     19 C          62.8110   89.0029   16.7917 C.3     1  UNL1        0.2525
     20 O          63.9660   88.1622   16.3347 O.3     1  UNL1       -0.4714
     21 C          60.8895   86.9652   10.3031 C.2     1  UNL1        0.2459
     22 O          60.2882   87.5214    9.0466 O.2     1  UNL1       -0.2701
     23 N          60.5500   87.5752   11.6308 N.am    1  UNL1       -0.3009
     24 H          60.9446   87.2102   12.4556 H       1  UNL1        0.1497
     25 C          59.6093   88.7414   11.7018 C.3     1  UNL1        0.0897
     26 C          60.1478   90.1414   11.6874 C.3     1  UNL1        0.0216
     27 C          60.9899   90.6093   10.5377 C.3     1  UNL1        0.0064
     28 C          62.4291   90.1966   10.4454 C.3     1  UNL1        0.0264
     29 C          63.4060   90.6436   11.4923 C.ar    1  UNL1       -0.0222
     30 C          64.2946   91.8241   11.2338 C.ar    1  UNL1       -0.0043
     31 C          65.2714   92.2710   12.2806 C.ar    1  UNL1       -0.0003
     32 C          65.3598   91.5375   13.5860 C.ar    1  UNL1       -0.0000
     33 C          64.4712   90.3570   13.8446 C.ar    1  UNL1       -0.0003
     34 C          63.4943   89.9100   12.7978 C.ar    1  UNL1       -0.0043
@<TRIPOS>BOND
     1    19    20    1
     2    20    13    1
     3    13    14   ar
     4    14    15   ar
     5    15    16   ar
     6    16     7    1
     7     7     8   ar
     8     8     9   ar
     9     9    10    1
    10     9    11   ar
    11    11    12   ar
    12    12     1    1
    13     1     2   ar
    14     2     3   ar
    15     3     4   ar
    16     4     5   ar
    17     5    21    1
    18    21    22    2
    19    21    23   am
    20    23    25    1
    21    25    26    1
    22    26    27    1
    23    27    28    1
    24    28    29    1
    25    29    30   ar
    26    30    31   ar
    27    31    32   ar
    28    32    33   ar
    29    33    34   ar
    30     5     6   ar
    31    16    17   ar
    32    17    18   ar
    33    18    13   ar
    34    12     7   ar
    35     6     1   ar
    36    34    29   ar
    37    23    24    1
@<TRIPOS>MOLECULE
*****
 34 37 0 0 0
SMALL
GASTEIGER

@<TRIPOS>ATOM
      1 C          62.7300   84.0902   11.3486 C.ar    1  UNL1        0.0846
      2 C          63.0725   83.8854    9.9026 C.ar    1  UNL1        0.0192
      3 C          63.0501   85.0477    8.9546 C.ar    1  UNL1        0.0017
      4 C          62.6852   86.4147    9.4526 C.ar    1  UNL1        0.0046
      5 C          62.3427   86.6195   10.8986 C.ar    1  UNL1        0.0549
      6 C          62.3651   85.4572   11.8465 C.ar    1  UNL1        0.0237
      7 C          62.9000   83.0086   13.7871 C.ar    1  UNL1        0.1651
      8 N          62.8700   81.6114   14.3321 N.ar    1  UNL1       -0.2101
      9 C          62.7038   80.6673   13.1784 C.ar    1  UNL1        0.1612
     10 C          62.6242   79.1720   13.2672 C.3     1  UNL1        0.0756
     11 N          62.6311   81.4809   11.9203 N.ar    1  UNL1       -0.1488
     12 N          62.7524   82.9279   12.2966 N.ar    1  UNL1       -0.2111
     13 C          63.3535   86.7798   16.2000 C.ar    1  UNL1        0.1387
     14 C          64.2889   86.5011   15.0610 C.ar    1  UNL1        0.0370
     15 C          64.1378   85.2440   14.2567 C.ar    1  UNL1        0.0062
     16 C          63.0512   84.2656   14.5914 C.ar    1  UNL1        0.0361
     17 C          62.1158   84.5443   15.7304 C.ar    1  UNL1        0.0062
     18 C          62.2670   85.8014   16.5347 C.ar    1  UNL1        0.0370
     19 C          63.1565   89.3629   16.3959 C.3     1  UNL1        0.2525
     20 O          63.5047   88.0369   17.0043 O.3     1  UNL1       -0.4714
     21 C          61.9777   87.9865   11.3965 C.2     1  UNL1        0.2459
     22 O          60.6470   88.5825   11.0446 O.2     1  UNL1       -0.2701
     23 N          62.9436   88.7577   12.2465 N.am    1  UNL1       -0.3009
     24 H          63.8171   88.3666   12.4775 H       1  UNL1        0.1497
     25 C          62.5787   90.1248   12.7445 C.3     1  UNL1        0.0897
     26 C          63.6553   91.1218   13.0556 C.3     1  UNL1        0.0216
     27 C          64.4654   91.7219   11.9449 C.3     1  UNL1        0.0064
     28 C          65.7702   92.3968   12.2484 C.3     1  UNL1        0.0264
     29 C          66.4856   93.1631   11.1755 C.ar    1  UNL1       -0.0222
     30 C          67.4592   92.4618   10.2754 C.ar    1  UNL1       -0.0043
     31 C          68.1746   93.2280    9.2025 C.ar    1  UNL1       -0.0003
     32 C          67.9164   94.6955    9.0297 C.ar    1  UNL1       -0.0000
     33 C          66.9428   95.3967    9.9298 C.ar    1  UNL1       -0.0003
     34 C          66.2274   94.6306   11.0027 C.ar    1  UNL1       -0.0043
@<TRIPOS>BOND
     1    19    20    1
     2    20    13    1
     3    13    14   ar
     4    14    15   ar
     5    15    16   ar
     6    16     7    1
     7     7     8   ar
     8     8     9   ar
     9     9    10    1
    10     9    11   ar
    11    11    12   ar
    12    12     1    1
    13     1     2   ar
    14     2     3   ar
    15     3     4   ar
    16     4     5   ar
    17     5    21    1
    18    21    22    2
    19    21    23   am
    20    23    25    1
    21    25    26    1
    22    26    27    1
    23    27    28    1
    24    28    29    1
    25    29    30   ar
    26    30    31   ar
    27    31    32   ar
    28    32    33   ar
    29    33    34   ar
    30     5     6   ar
    31    16    17   ar
    32    17    18   ar
    33    18    13   ar
    34    12     7   ar
    35     6     1   ar
    36    34    29   ar
    37    23    24    1
@<TRIPOS>MOLECULE
*****
 34 37 0 0 0
SMALL
GASTEIGER

@<TRIPOS>ATOM
      1 C          62.7425   83.9099   11.3525 C.ar    1  UNL1        0.0846
      2 C          63.2403   83.6747    9.9571 C.ar    1  UNL1        0.0192
      3 C          63.2374   84.7959    8.9607 C.ar    1  UNL1        0.0017
      4 C          62.7366   86.1524    9.3596 C.ar    1  UNL1        0.0046
      5 C          62.2389   86.3877   10.7549 C.ar    1  UNL1        0.0549
      6 C          62.2418   85.2664   11.7513 C.ar    1  UNL1        0.0237
      7 C          62.9035   82.9292   13.8338 C.ar    1  UNL1        0.1651
      8 N          62.8466   81.5574   14.4379 N.ar    1  UNL1       -0.2101
      9 C          62.6534   80.5691   13.3262 C.ar    1  UNL1        0.1612
     10 C          62.5422   79.0810   13.4789 C.3     1  UNL1        0.0756
     11 N          62.5908   81.3300   12.0351 N.ar    1  UNL1       -0.1488
     12 N          62.7455   82.7887   12.3488 N.ar    1  UNL1       -0.2111
     13 C          63.4522   86.7886   16.0820 C.ar    1  UNL1        0.1387
     14 C          62.3814   85.8241   16.4979 C.ar    1  UNL1        0.0370
     15 C          62.1985   84.5376   15.7485 C.ar    1  UNL1        0.0062
     16 C          63.0864   84.2157   14.5832 C.ar    1  UNL1        0.0361
     17 C          64.1572   85.1802   14.1673 C.ar    1  UNL1        0.0062
     18 C          64.3401   86.4667   14.9167 C.ar    1  UNL1        0.0370
     19 C          63.1372   89.3624   16.2441 C.3     1  UNL1        0.2525
     20 O          63.6351   88.0751   16.8313 O.3     1  UNL1       -0.4714
     21 C          61.7381   87.7442   11.1538 C.2     1  UNL1        0.2459
     22 O          60.3438   87.9031   11.6834 O.2     1  UNL1       -0.2701
     23 N          62.6317   88.9418   11.0230 N.am    1  UNL1       -0.3009
     24 H          63.5469   88.8376   10.6754 H       1  UNL1        0.1497
     25 C          62.1310   90.2984   11.4219 C.3     1  UNL1        0.0897
     26 C          63.0969   91.4323   11.5985 C.3     1  UNL1        0.0216
     27 C          64.1911   91.3333   12.6198 C.3     1  UNL1        0.0064
     28 C          65.3192   92.3219   12.6084 C.3     1  UNL1        0.0264
     29 C          66.3167   92.3344   13.7287 C.ar    1  UNL1       -0.0222
     30 C          65.8786   92.6879   15.1191 C.ar    1  UNL1       -0.0043
     31 C          66.8760   92.7004   16.2393 C.ar    1  UNL1       -0.0003
     32 C          68.3115   92.3595   15.9693 C.ar    1  UNL1       -0.0000
     33 C          68.7496   92.0061   14.5789 C.ar    1  UNL1       -0.0003
     34 C          67.7523   91.9935   13.4586 C.ar    1  UNL1       -0.0043
@<TRIPOS>BOND
     1    19    20    1
     2    20    13    1
     3    13    14   ar
     4    14    15   ar
     5    15    16   ar
     6    16     7    1
     7     7     8   ar
     8     8     9   ar
     9     9    10    1
    10     9    11   ar
    11    11    12   ar
    12    12     1    1
    13     1     2   ar
    14     2     3   ar
    15     3     4   ar
    16     4     5   ar
    17     5    21    1
    18    21    22    2
    19    21    23   am
    20    23    25    1
    21    25    26    1
    22    26    27    1
    23    27    28    1
    24    28    29    1
    25    29    30   ar
    26    30    31   ar
    27    31    32   ar
    28    32    33   ar
    29    33    34   ar
    30     5     6   ar
    31    16    17   ar
    32    17    18   ar
    33    18    13   ar
    34    12     7   ar
    35     6     1   ar
    36    34    29   ar
    37    23    24    1
@<TRIPOS>MOLECULE
*****
 34 37 0 0 0
SMALL
GASTEIGER

@<TRIPOS>ATOM
      1 C          63.6817   89.0444   14.0845 C.ar    1  UNL1        0.0846
      2 C          63.3118   89.5733   15.4386 C.ar    1  UNL1        0.0192
      3 C          63.3133   88.6582   16.6272 C.ar    1  UNL1        0.0017
      4 C          63.6847   87.2144   16.4617 C.ar    1  UNL1        0.0046
      5 C          64.0546   86.6856   15.1077 C.ar    1  UNL1        0.0549
      6 C          64.0531   87.6007   13.9191 C.ar    1  UNL1        0.0237
      7 C          64.5918   91.1318   12.6846 C.ar    1  UNL1        0.1651
      8 N          64.2418   91.7597   11.3681 N.ar    1  UNL1       -0.2101
      9 C          63.1139   90.9754   10.7657 C.ar    1  UNL1        0.1612
     10 C          62.4498   91.2547    9.4501 C.3     1  UNL1        0.0756
     11 N          62.7668   89.8628   11.7100 N.ar    1  UNL1       -0.1488
     12 N          63.6802   89.9595   12.8959 N.ar    1  UNL1       -0.2111
     13 C          67.8111   92.5213   15.5051 C.ar    1  UNL1        0.1387
     14 C          66.3866   92.4507   15.9693 C.ar    1  UNL1        0.0370
     15 C          65.3134   91.9875   15.0292 C.ar    1  UNL1        0.0062
     16 C          65.6649   91.5950   13.6248 C.ar    1  UNL1        0.0361
     17 C          67.0895   91.6656   13.1605 C.ar    1  UNL1        0.0062
     18 C          68.1626   92.1288   14.1007 C.ar    1  UNL1        0.0370
     19 C          69.5252   94.3263   16.2492 C.3     1  UNL1        0.2525
     20 O          68.8842   92.9844   16.4453 O.3     1  UNL1       -0.4714
     21 C          64.4259   85.2418   14.9422 C.2     1  UNL1        0.2459
     22 O          65.8671   84.8489   14.8055 O.2     1  UNL1       -0.2701
     23 N          63.3561   84.1907   14.9133 N.am    1  UNL1       -0.3009
     24 H          62.4102   84.4485   15.0029 H       1  UNL1        0.1497
     25 C          63.7275   82.7469   14.7478 C.3     1  UNL1        0.0897
     26 C          63.7783   82.1378   13.3779 C.3     1  UNL1        0.0216
     27 C          64.4839   82.8536   12.2645 C.3     1  UNL1        0.0064
     28 C          63.8398   82.9594   10.9140 C.3     1  UNL1        0.0264
     29 C          63.1738   84.2377   10.4988 C.ar    1  UNL1       -0.0222
     30 C          63.2165   84.6741    9.0643 C.ar    1  UNL1       -0.0043
     31 C          62.5505   85.9524    8.6491 C.ar    1  UNL1       -0.0003
     32 C          61.8419   86.7944    9.6683 C.ar    1  UNL1       -0.0000
     33 C          61.7992   86.3580   11.1028 C.ar    1  UNL1       -0.0003
     34 C          62.4651   85.0797   11.5180 C.ar    1  UNL1       -0.0043
@<TRIPOS>BOND
     1    19    20    1
     2    20    13    1
     3    13    14   ar
     4    14    15   ar
     5    15    16   ar
     6    16     7    1
     7     7     8   ar
     8     8     9   ar
     9     9    10    1
    10     9    11   ar
    11    11    12   ar
    12    12     1    1
    13     1     2   ar
    14     2     3   ar
    15     3     4   ar
    16     4     5   ar
    17     5    21    1
    18    21    22    2
    19    21    23   am
    20    23    25    1
    21    25    26    1
    22    26    27    1
    23    27    28    1
    24    28    29    1
    25    29    30   ar
    26    30    31   ar
    27    31    32   ar
    28    32    33   ar
    29    33    34   ar
    30     5     6   ar
    31    16    17   ar
    32    17    18   ar
    33    18    13   ar
    34    12     7   ar
    35     6     1   ar
    36    34    29   ar
    37    23    24    1
@<TRIPOS>MOLECULE
*****
 34 37 0 0 0
SMALL
GASTEIGER

@<TRIPOS>ATOM
      1 C          62.0999   89.8188   10.2238 C.ar    1  UNL1        0.0846
      2 C          62.9713   90.9877    9.8708 C.ar    1  UNL1        0.0192
      3 C          63.9397   91.5325   10.8785 C.ar    1  UNL1        0.0017
      4 C          64.0367   90.9085   12.2391 C.ar    1  UNL1        0.0046
      5 C          63.1653   89.7397   12.5920 C.ar    1  UNL1        0.0549
      6 C          62.1969   89.1949   11.5843 C.ar    1  UNL1        0.0237
      7 C          60.9352   87.8266    8.8748 C.ar    1  UNL1        0.1651
      8 N          59.8718   87.7390    7.8206 N.ar    1  UNL1       -0.2101
      9 C          59.4108   89.1323    7.5103 C.ar    1  UNL1        0.1612
     10 C          58.3564   89.5105    6.5127 C.3     1  UNL1        0.0756
     11 N          60.1894   90.0810    8.3728 N.ar    1  UNL1       -0.1488
     12 N          61.1315   89.2740    9.2161 N.ar    1  UNL1       -0.2111
     13 C          63.1481   84.3563   10.6943 C.ar    1  UNL1        0.1387
     14 C          63.3725   84.7178    9.2559 C.ar    1  UNL1        0.0370
     15 C          62.6348   85.8745    8.6494 C.ar    1  UNL1        0.0062
     16 C          61.6729   86.6698    9.4813 C.ar    1  UNL1        0.0361
     17 C          61.4485   86.3084   10.9197 C.ar    1  UNL1        0.0062
     18 C          62.1862   85.1516   11.5262 C.ar    1  UNL1        0.0370
     19 C          64.0778   81.9370   10.5141 C.3     1  UNL1        0.2525
     20 O          63.8858   83.1996   11.3008 O.3     1  UNL1       -0.4714
     21 C          63.2623   89.1157   13.9526 C.2     1  UNL1        0.2459
     22 O          62.5805   89.7594   15.1233 O.2     1  UNL1       -0.2701
     23 N          64.0412   87.8479   14.1425 N.am    1  UNL1       -0.3009
     24 H          64.4888   87.4254   13.3741 H       1  UNL1        0.1497
     25 C          64.1383   87.2239   15.5030 C.3     1  UNL1        0.0897
     26 C          63.9351   85.7468   15.6669 C.3     1  UNL1        0.0216
     27 C          64.2033   84.8208   14.5178 C.3     1  UNL1        0.0064
     28 C          64.5206   83.3776   14.7760 C.3     1  UNL1        0.0264
     29 C          63.5321   82.3136   14.4009 C.ar    1  UNL1       -0.0222
     30 C          64.0132   81.0000   13.8596 C.ar    1  UNL1       -0.0043
     31 C          63.0247   79.9361   13.4845 C.ar    1  UNL1       -0.0003
     32 C          61.5550   80.1856   13.6506 C.ar    1  UNL1       -0.0000
     33 C          61.0738   81.4992   14.1919 C.ar    1  UNL1       -0.0003
     34 C          62.0623   82.5632   14.5670 C.ar    1  UNL1       -0.0043
@<TRIPOS>BOND
     1    19    20    1
     2    20    13    1
     3    13    14   ar
     4    14    15   ar
     5    15    16   ar
     6    16     7    1
     7     7     8   ar
     8     8     9   ar
     9     9    10    1
    10     9    11   ar
    11    11    12   ar
    12    12     1    1
    13     1     2   ar
    14     2     3   ar
    15     3     4   ar
    16     4     5   ar
    17     5    21    1
    18    21    22    2
    19    21    23   am
    20    23    25    1
    21    25    26    1
    22    26    27    1
    23    27    28    1
    24    28    29    1
    25    29    30   ar
    26    30    31   ar
    27    31    32   ar
    28    32    33   ar
    29    33    34   ar
    30     5     6   ar
    31    16    17   ar
    32    17    18   ar
    33    18    13   ar
    34    12     7   ar
    35     6     1   ar
    36    34    29   ar
    37    23    24    1
@<TRIPOS>MOLECULE
*****
 34 37 0 0 0
SMALL
GASTEIGER

@<TRIPOS>ATOM
      1 C          63.4361   85.8980   15.1522 C.ar    1  UNL1        0.0846
      2 C          62.9304   85.4687   16.4976 C.ar    1  UNL1        0.0192
      3 C          62.7239   86.4857   17.5807 C.ar    1  UNL1        0.0017
      4 C          63.0230   87.9320   17.3184 C.ar    1  UNL1        0.0046
      5 C          63.5287   88.3612   15.9731 C.ar    1  UNL1        0.0549
      6 C          63.7352   87.3442   14.8900 C.ar    1  UNL1        0.0237
      7 C          63.2598   85.0383   12.6273 C.ar    1  UNL1        0.1651
      8 N          63.6488   83.7827   11.9049 N.ar    1  UNL1       -0.2101
      9 C          64.2722   82.8494   12.9001 C.ar    1  UNL1        0.1612
     10 C          64.8057   81.4781   12.6088 C.3     1  UNL1        0.0756
     11 N          64.2684   83.5282   14.2377 N.ar    1  UNL1       -0.1488
     12 N          63.6427   84.8810   14.0691 N.ar    1  UNL1       -0.2111
     13 C          61.2898   88.6439   10.7919 C.ar    1  UNL1        0.1387
     14 C          60.6744   87.2863   10.6243 C.ar    1  UNL1        0.0370
     15 C          61.3310   86.0844   11.2361 C.ar    1  UNL1        0.0062
     16 C          62.6031   86.2402   12.0155 C.ar    1  UNL1        0.0361
     17 C          63.2185   87.5978   12.1831 C.ar    1  UNL1        0.0062
     18 C          62.5618   88.7996   11.5713 C.ar    1  UNL1        0.0370
     19 C          59.6706   90.6664   10.9863 C.3     1  UNL1        0.2525
     20 O          60.6331   89.8457   10.1800 O.3     1  UNL1       -0.4714
     21 C          63.8278   89.8075   15.7108 C.2     1  UNL1        0.2459
     22 O          63.3971   90.8532   16.6962 O.2     1  UNL1       -0.2701
     23 N          64.5577   90.2082   14.4631 N.am    1  UNL1       -0.3009
     24 H          64.8404   89.5219   13.8164 H       1  UNL1        0.1497
     25 C          64.8568   91.6544   14.2009 C.3     1  UNL1        0.0897
     26 C          66.1857   92.2287   14.5937 C.3     1  UNL1        0.0216
     27 C          66.7415   93.4086   13.8528 C.3     1  UNL1        0.0064
     28 C          66.1239   93.8379   12.5550 C.3     1  UNL1        0.0264
     29 C          66.8466   93.5933   11.2635 C.ar    1  UNL1       -0.0222
     30 C          66.9386   94.6835   10.2373 C.ar    1  UNL1       -0.0043
     31 C          67.6612   94.4389    8.9459 C.ar    1  UNL1       -0.0003
     32 C          68.2920   93.1041    8.6805 C.ar    1  UNL1       -0.0000
     33 C          68.2000   92.0139    9.7066 C.ar    1  UNL1       -0.0003
     34 C          67.4774   92.2584   10.9980 C.ar    1  UNL1       -0.0043
@<TRIPOS>BOND
     1    19    20    1
     2    20    13    1
     3    13    14   ar
     4    14    15   ar
     5    15    16   ar
     6    16     7    1
     7     7     8   ar
     8     8     9   ar
     9     9    10    1
    10     9    11   ar
    11    11    12   ar
    12    12     1    1
    13     1     2   ar
    14     2     3   ar
    15     3     4   ar
    16     4     5   ar
    17     5    21    1
    18    21    22    2
    19    21    23   am
    20    23    25    1
    21    25    26    1
    22    26    27    1
    23    27    28    1
    24    28    29    1
    25    29    30   ar
    26    30    31   ar
    27    31    32   ar
    28    32    33   ar
    29    33    34   ar
    30     5     6   ar
    31    16    17   ar
    32    17    18   ar
    33    18    13   ar
    34    12     7   ar
    35     6     1   ar
    36    34    29   ar
    37    23    24    1
@<TRIPOS>MOLECULE
*****
 34 37 0 0 0
SMALL
GASTEIGER

@<TRIPOS>ATOM
      1 C          61.3644   87.3488    9.8315 C.ar    1  UNL1        0.0846
      2 C          59.9045   87.5197   10.1306 C.ar    1  UNL1        0.0192
      3 C          59.4489   88.6247   11.0369 C.ar    1  UNL1        0.0017
      4 C          60.4532   89.5589   11.6441 C.ar    1  UNL1        0.0046
      5 C          61.9131   89.3880   11.3450 C.ar    1  UNL1        0.0549
      6 C          62.3686   88.2830   10.4387 C.ar    1  UNL1        0.0237
      7 C          62.5764   85.0172    9.3418 C.ar    1  UNL1        0.1651
      8 N          62.8231   84.1867    8.1173 N.ar    1  UNL1       -0.2101
      9 C          62.2192   84.8999    6.9440 C.ar    1  UNL1        0.1612
     10 C          62.2328   84.4252    5.5212 C.3     1  UNL1        0.0756
     11 N          61.5992   86.1713    7.4434 N.ar    1  UNL1       -0.1488
     12 N          61.8200   86.2438    8.9253 N.ar    1  UNL1       -0.2111
     13 C          63.8771   84.0066   13.5295 C.ar    1  UNL1        0.1387
     14 C          64.5405   83.3453   12.3579 C.ar    1  UNL1        0.0370
     15 C          64.1069   83.6822   10.9620 C.ar    1  UNL1        0.0062
     16 C          63.0100   84.6803   10.7377 C.ar    1  UNL1        0.0361
     17 C          62.3466   85.3416   11.9092 C.ar    1  UNL1        0.0062
     18 C          62.7802   85.0047   13.3051 C.ar    1  UNL1        0.0370
     19 C          63.9192   84.5595   16.0677 C.3     1  UNL1        0.2525
     20 O          64.3107   83.6697   14.9254 O.3     1  UNL1       -0.4714
     21 C          62.9173   90.3222   11.9521 C.2     1  UNL1        0.2459
     22 O          63.7849   91.1683   11.0682 O.2     1  UNL1       -0.2701
     23 N          63.0541   90.4103   13.4433 N.am    1  UNL1       -0.3009
     24 H          62.4847   89.8550   14.0235 H       1  UNL1        0.1497
     25 C          64.0584   91.3445   14.0505 C.3     1  UNL1        0.0897
     26 C          65.4928   90.9244   14.1770 C.3     1  UNL1        0.0216
     27 C          66.5781   91.7738   13.5848 C.3     1  UNL1        0.0064
     28 C          66.2239   92.9717   12.7543 C.3     1  UNL1        0.0264
     29 C          66.8497   93.1598   11.4041 C.ar    1  UNL1       -0.0222
     30 C          67.7403   92.0951   10.8354 C.ar    1  UNL1       -0.0043
     31 C          68.3661   92.2832    9.4852 C.ar    1  UNL1       -0.0003
     32 C          68.1015   93.5359    8.7037 C.ar    1  UNL1       -0.0000
     33 C          67.2109   94.6005    9.2725 C.ar    1  UNL1       -0.0003
     34 C          66.5850   94.4125   10.6226 C.ar    1  UNL1       -0.0043
@<TRIPOS>BOND
     1    19    20    1
     2    20    13    1
     3    13    14   ar
     4    14    15   ar
     5    15    16   ar
     6    16     7    1
     7     7     8   ar
     8     8     9   ar
     9     9    10    1
    10     9    11   ar
    11    11    12   ar
    12    12     1    1
    13     1     2   ar
    14     2     3   ar
    15     3     4   ar
    16     4     5   ar
    17     5    21    1
    18    21    22    2
    19    21    23   am
    20    23    25    1
    21    25    26    1
    22    26    27    1
    23    27    28    1
    24    28    29    1
    25    29    30   ar
    26    30    31   ar
    27    31    32   ar
    28    32    33   ar
    29    33    34   ar
    30     5     6   ar
    31    16    17   ar
    32    17    18   ar
    33    18    13   ar
    34    12     7   ar
    35     6     1   ar
    36    34    29   ar
    37    23    24    1
