@<TRIPOS>MOLECULE
*****
 32 34 0 0 0
SMALL
GASTEIGER

@<TRIPOS>ATOM
      1 C          64.1654   91.2533   13.1296 C.ar    1  UNL1        0.0764
      2 C          65.0300   91.8607   12.0649 C.ar    1  UNL1        0.0522
      3 C          66.4491   92.2354   12.3745 C.ar    1  UNL1        0.1515
      4 N          67.0036   92.0026   13.7486 N.ar    1  UNL1       -0.1329
      5 N          66.1390   91.3952   14.8133 N.ar    1  UNL1       -0.1409
      6 C          64.7198   91.0205   14.5038 C.ar    1  UNL1        0.1691
      7 C          63.8553   90.4131   15.5684 C.2     1  UNL1        0.2635
      8 N          63.4302   88.9786   15.4615 N.am    1  UNL1       -0.3240
      9 O          63.4157   91.2402   16.7400 O.2     1  UNL1       -0.2686
     10 H          63.7187   88.4357   14.6925 H       1  UNL1        0.1453
     11 H          62.8627   88.5799   16.1603 H       1  UNL1        0.1453
     12 N          62.7463   90.8787   12.8201 N.pl3   1  UNL1       -0.2965
     13 H          62.0044   91.3689   13.2426 H       1  UNL1        0.1537
     14 C          61.5912   86.3929    9.0065 C.3     1  UNL1        0.0323
     15 C          61.8800   87.5143    9.9599 C.ar    1  UNL1       -0.0081
     16 C          61.6616   88.9359    9.5339 C.ar    1  UNL1       -0.0002
     17 C          61.9504   90.0573   10.4873 C.ar    1  UNL1        0.0341
     18 C          62.4575   89.7572   11.8667 C.ar    1  UNL1        0.1318
     19 N          62.6759   88.3357   12.2926 N.ar    1  UNL1       -0.2352
     20 C          62.3871   87.2142   11.3392 C.ar    1  UNL1        0.0568
     21 C          62.6055   85.7926   11.7653 C.3     1  UNL1        0.0518
     22 N          67.3138   92.8428   11.3098 N.pl3   1  UNL1       -0.3170
     23 H          68.1128   92.3636   10.9918 H       1  UNL1        0.1482
     24 C          66.9610   94.1803   10.7297 C.3     1  UNL1        0.0845
     25 C          66.2070   95.1805   11.5552 C.3     1  UNL1        0.0209
     26 C          65.8542   96.5181   10.9751 C.3     1  UNL1        0.0018
     27 C          66.2553   96.8555    9.5696 C.3     1  UNL1        0.0015
     28 C          67.0093   95.8553    8.7442 C.3     1  UNL1        0.0172
     29 C          67.3621   94.5177    9.3243 C.3     1  UNL1        0.0689
     30 N          68.1160   93.5176    8.4990 N.3     1  UNL1       -0.3209
     31 H          68.2690   92.6709    9.0468 H       1  UNL1        0.1189
     32 H          69.0156   93.9122    8.2246 H       1  UNL1        0.1189
@<TRIPOS>BOND
     1    14    15    1
     2    15    16   ar
     3    16    17   ar
     4    17    18   ar
     5    18    12    1
     6    12     1    1
     7     1     2   ar
     8     2     3   ar
     9     3    22    1
    10    24    22    1
    11    24    25    1
    12    25    26    1
    13    26    27    1
    14    27    28    1
    15    28    29    1
    16    29    30    1
    17     3     4   ar
    18     4     5   ar
    19     5     6   ar
    20     6     7    1
    21     7     8   am
    22     7     9    2
    23    18    19   ar
    24    19    20   ar
    25    20    21    1
    26    20    15   ar
    27     6     1   ar
    28    29    24    1
    29    12    13    1
    30    22    23    1
    31    30    31    1
    32    30    32    1
    33     8    10    1
    34     8    11    1
@<TRIPOS>MOLECULE
*****
 32 34 0 0 0
SMALL
GASTEIGER

@<TRIPOS>ATOM
      1 C          63.4490   90.4417   13.1705 C.ar    1  UNL1        0.0764
      2 C          63.8711   91.6638   12.4099 C.ar    1  UNL1        0.0522
      3 C          65.1857   92.3192   12.7133 C.ar    1  UNL1        0.1515
      4 N          66.0783   91.7527   13.7774 N.ar    1  UNL1       -0.1329
      5 N          65.6563   90.5307   14.5380 N.ar    1  UNL1       -0.1409
      6 C          64.3416   89.8752   14.2346 C.ar    1  UNL1        0.1691
      7 C          63.9196   88.6532   14.9953 C.2     1  UNL1        0.2635
      8 N          64.2330   87.2889   14.4564 N.am    1  UNL1       -0.3240
      9 O          63.1842   88.7955   16.2948 O.2     1  UNL1       -0.2686
     10 H          64.7157   87.1955   13.6034 H       1  UNL1        0.1453
     11 H          63.9560   86.4868   14.9556 H       1  UNL1        0.1453
     12 N          62.1344   89.7863   12.8671 N.pl3   1  UNL1       -0.2965
     13 H          61.3419   89.9970   13.4120 H       1  UNL1        0.1537
     14 C          61.7053   85.8804    8.3328 C.3     1  UNL1        0.0323
     15 C          61.8125   86.8569    9.4663 C.ar    1  UNL1       -0.0081
     16 C          61.4648   88.2997    9.2488 C.ar    1  UNL1       -0.0002
     17 C          61.5721   89.2762   10.3824 C.ar    1  UNL1        0.0341
     18 C          62.0271   88.8098   11.7335 C.ar    1  UNL1        0.1318
     19 N          62.3748   87.3670   11.9510 N.ar    1  UNL1       -0.2352
     20 C          62.2675   86.3905   10.8174 C.ar    1  UNL1        0.0568
     21 C          62.6152   84.9477   11.0350 C.3     1  UNL1        0.0518
     22 N          65.6077   93.5412   11.9526 N.pl3   1  UNL1       -0.3170
     23 H          65.2614   94.4259   12.2109 H       1  UNL1        0.1482
     24 C          66.5575   93.4154   10.7985 C.3     1  UNL1        0.0845
     25 C          67.4889   92.2423   10.7181 C.3     1  UNL1        0.0209
     26 C          68.4387   92.1164    9.5639 C.3     1  UNL1        0.0018
     27 C          68.4570   93.1637    8.4901 C.3     1  UNL1        0.0015
     28 C          67.5257   94.3367    8.5705 C.3     1  UNL1        0.0172
     29 C          66.5759   94.4626    9.7247 C.3     1  UNL1        0.0689
     30 N          65.6446   95.6356    9.8051 N.3     1  UNL1       -0.3209
     31 H          65.0751   95.5605   10.6480 H       1  UNL1        0.1189
     32 H          65.0383   95.6452    8.9849 H       1  UNL1        0.1189
@<TRIPOS>BOND
     1    14    15    1
     2    15    16   ar
     3    16    17   ar
     4    17    18   ar
     5    18    12    1
     6    12     1    1
     7     1     2   ar
     8     2     3   ar
     9     3    22    1
    10    24    22    1
    11    24    25    1
    12    25    26    1
    13    26    27    1
    14    27    28    1
    15    28    29    1
    16    29    30    1
    17     3     4   ar
    18     4     5   ar
    19     5     6   ar
    20     6     7    1
    21     7     8   am
    22     7     9    2
    23    18    19   ar
    24    19    20   ar
    25    20    21    1
    26    20    15   ar
    27     6     1   ar
    28    29    24    1
    29    12    13    1
    30    22    23    1
    31    30    31    1
    32    30    32    1
    33     8    10    1
    34     8    11    1
@<TRIPOS>MOLECULE
*****
 32 34 0 0 0
SMALL
GASTEIGER

@<TRIPOS>ATOM
      1 C          66.0198   91.7102   13.2634 C.ar    1  UNL1        0.0764
      2 C          64.7155   91.0434   12.9404 C.ar    1  UNL1        0.0522
      3 C          63.6643   90.8987   14.0006 C.ar    1  UNL1        0.1515
      4 N          63.9173   91.4208   15.3838 N.ar    1  UNL1       -0.1329
      5 N          65.2215   92.0876   15.7069 N.ar    1  UNL1       -0.1409
      6 C          66.2728   92.2323   14.6467 C.ar    1  UNL1        0.1691
      7 C          67.5769   92.8992   14.9697 C.2     1  UNL1        0.2635
      8 N          67.6302   93.9777   16.0108 N.am    1  UNL1       -0.3240
      9 O          68.8279   92.4874   14.2517 O.2     1  UNL1       -0.2686
     10 H          66.8092   94.2480   16.4821 H       1  UNL1        0.1453
     11 H          68.4862   94.4154   16.2228 H       1  UNL1        0.1453
     12 N          67.0709   91.8549   12.2032 N.pl3   1  UNL1       -0.2965
     13 H          67.7668   91.1657   12.1027 H       1  UNL1        0.1537
     14 C          67.0350   96.6336    8.5752 C.3     1  UNL1        0.0323
     15 C          67.0440   95.4389    9.4822 C.ar    1  UNL1       -0.0081
     16 C          67.6003   94.1332    8.9971 C.ar    1  UNL1       -0.0002
     17 C          67.6093   92.9385    9.9041 C.ar    1  UNL1        0.0341
     18 C          67.0619   93.0496   11.2962 C.ar    1  UNL1        0.1318
     19 N          66.5056   94.3553   11.7813 N.ar    1  UNL1       -0.2352
     20 C          66.4966   95.5500   10.8743 C.ar    1  UNL1        0.0568
     21 C          65.9402   96.8558   11.3595 C.3     1  UNL1        0.0518
     22 N          62.3600   90.2318   13.6776 N.pl3   1  UNL1       -0.3170
     23 H          61.6607   90.1585   14.3666 H       1  UNL1        0.1482
     24 C          62.1213   89.6767   12.3047 C.3     1  UNL1        0.0845
     25 C          61.3541   90.4777   11.2948 C.3     1  UNL1        0.0209
     26 C          61.1154   89.9225    9.9219 C.3     1  UNL1        0.0018
     27 C          61.6439   88.5664    9.5589 C.3     1  UNL1        0.0015
     28 C          62.4111   87.7655   10.5688 C.3     1  UNL1        0.0172
     29 C          62.6498   88.3206   11.9417 C.3     1  UNL1        0.0689
     30 N          63.4170   87.5197   12.9516 N.3     1  UNL1       -0.3209
     31 H          63.4836   88.0456   13.8230 H       1  UNL1        0.1189
     32 H          64.3541   87.3316   12.5955 H       1  UNL1        0.1189
@<TRIPOS>BOND
     1    14    15    1
     2    15    16   ar
     3    16    17   ar
     4    17    18   ar
     5    18    12    1
     6    12     1    1
     7     1     2   ar
     8     2     3   ar
     9     3    22    1
    10    24    22    1
    11    24    25    1
    12    25    26    1
    13    26    27    1
    14    27    28    1
    15    28    29    1
    16    29    30    1
    17     3     4   ar
    18     4     5   ar
    19     5     6   ar
    20     6     7    1
    21     7     8   am
    22     7     9    2
    23    18    19   ar
    24    19    20   ar
    25    20    21    1
    26    20    15   ar
    27     6     1   ar
    28    29    24    1
    29    12    13    1
    30    22    23    1
    31    30    31    1
    32    30    32    1
    33     8    10    1
    34     8    11    1
@<TRIPOS>MOLECULE
*****
 32 34 0 0 0
SMALL
GASTEIGER

@<TRIPOS>ATOM
      1 C          61.4186   87.9484    9.6871 C.ar    1  UNL1        0.0764
      2 C          62.2314   88.4793   10.8306 C.ar    1  UNL1        0.0522
      3 C          61.8494   89.7739   11.4849 C.ar    1  UNL1        0.1515
      4 N          60.6547   90.5376   10.9957 N.ar    1  UNL1       -0.1329
      5 N          59.8419   90.0068    9.8522 N.ar    1  UNL1       -0.1409
      6 C          60.2239   88.7121    9.1979 C.ar    1  UNL1        0.1691
      7 C          59.4111   88.1813    8.0544 C.2     1  UNL1        0.2635
      8 N          59.2164   89.0143    6.8222 N.am    1  UNL1       -0.3240
      9 O          58.7931   86.8174    8.1431 O.2     1  UNL1       -0.2686
     10 H          59.6220   89.9095    6.7641 H       1  UNL1        0.1453
     11 H          58.6829   88.6659    6.0717 H       1  UNL1        0.1453
     12 N          61.8006   86.6538    9.0328 N.pl3   1  UNL1       -0.2965
     13 H          61.6337   86.5199    8.0718 H       1  UNL1        0.1537
     14 C          64.3453   82.2914   12.2723 C.3     1  UNL1        0.0323
     15 C          63.7091   83.3820   11.4624 C.ar    1  UNL1       -0.0081
     16 C          63.9624   83.4652    9.9863 C.ar    1  UNL1       -0.0002
     17 C          63.3262   84.5558    9.1764 C.ar    1  UNL1        0.0341
     18 C          62.4367   85.5632    9.8427 C.ar    1  UNL1        0.1318
     19 N          62.1835   85.4801   11.3188 N.ar    1  UNL1       -0.2352
     20 C          62.8196   84.3895   12.1286 C.ar    1  UNL1        0.0568
     21 C          62.5663   84.3063   13.6048 C.3     1  UNL1        0.0518
     22 N          62.6622   90.3048   12.6284 N.pl3   1  UNL1       -0.3170
     23 H          62.4180   90.0754   13.5542 H       1  UNL1        0.1482
     24 C          63.8469   91.1852   12.3614 C.3     1  UNL1        0.0845
     25 C          64.1526   91.6269   10.9608 C.3     1  UNL1        0.0209
     26 C          65.3374   92.5073   10.6938 C.3     1  UNL1        0.0018
     27 C          66.2165   92.9459   11.8274 C.3     1  UNL1        0.0015
     28 C          65.9108   92.5041   13.2279 C.3     1  UNL1        0.0172
     29 C          64.7261   91.6237   13.4949 C.3     1  UNL1        0.0689
     30 N          64.4204   91.1820   14.8953 N.3     1  UNL1       -0.3209
     31 H          63.5872   90.5936   14.8920 H       1  UNL1        0.1189
     32 H          64.2565   92.0002   15.4818 H       1  UNL1        0.1189
@<TRIPOS>BOND
     1    14    15    1
     2    15    16   ar
     3    16    17   ar
     4    17    18   ar
     5    18    12    1
     6    12     1    1
     7     1     2   ar
     8     2     3   ar
     9     3    22    1
    10    24    22    1
    11    24    25    1
    12    25    26    1
    13    26    27    1
    14    27    28    1
    15    28    29    1
    16    29    30    1
    17     3     4   ar
    18     4     5   ar
    19     5     6   ar
    20     6     7    1
    21     7     8   am
    22     7     9    2
    23    18    19   ar
    24    19    20   ar
    25    20    21    1
    26    20    15   ar
    27     6     1   ar
    28    29    24    1
    29    12    13    1
    30    22    23    1
    31    30    31    1
    32    30    32    1
    33     8    10    1
    34     8    11    1
@<TRIPOS>MOLECULE
*****
 32 34 0 0 0
SMALL
GASTEIGER

@<TRIPOS>ATOM
      1 C          64.0803   91.2733   13.1659 C.ar    1  UNL1        0.0764
      2 C          62.8864   90.7167   12.4482 C.ar    1  UNL1        0.0522
      3 C          62.7312   90.9318   10.9719 C.ar    1  UNL1        0.1515
      4 N          63.7698   91.7035   10.2131 N.ar    1  UNL1       -0.1329
      5 N          64.9637   92.2601   10.9307 N.ar    1  UNL1       -0.1409
      6 C          65.1189   92.0449   12.4071 C.ar    1  UNL1        0.1691
      7 C          66.3128   92.6015   13.1247 C.2     1  UNL1        0.2635
      8 N          67.6959   92.2731   12.6460 N.am    1  UNL1       -0.3240
      9 O          66.1235   93.4865   14.3209 O.2     1  UNL1       -0.2686
     10 H          67.8201   91.6922   11.8609 H       1  UNL1        0.1453
     11 H          68.4795   92.6384   13.1170 H       1  UNL1        0.1453
     12 N          64.2355   91.0581   14.6422 N.pl3   1  UNL1       -0.2965
     13 H          64.5223   91.8015   15.2205 H       1  UNL1        0.1537
     14 C          63.1086   85.6673   17.0232 C.3     1  UNL1        0.0323
     15 C          63.3903   87.0150   16.4280 C.ar    1  UNL1       -0.0081
     16 C          62.9417   88.2575   17.1386 C.ar    1  UNL1       -0.0002
     17 C          63.2234   89.6052   16.5433 C.ar    1  UNL1        0.0341
     18 C          63.9538   89.7104   15.2375 C.ar    1  UNL1        0.1318
     19 N          64.4024   88.4680   14.5268 N.ar    1  UNL1       -0.2352
     20 C          64.1207   87.1203   15.1221 C.ar    1  UNL1        0.0568
     21 C          64.5694   85.8779   14.4114 C.3     1  UNL1        0.0518
     22 N          61.5373   90.3753   10.2543 N.pl3   1  UNL1       -0.3170
     23 H          60.8230   90.9785    9.9459 H       1  UNL1        0.1482
     24 C          61.4318   88.8997   10.0065 C.3     1  UNL1        0.0845
     25 C          62.1604   87.9359   10.8956 C.3     1  UNL1        0.0209
     26 C          62.0550   86.4603   10.6478 C.3     1  UNL1        0.0018
     27 C          61.2209   85.9484    9.5110 C.3     1  UNL1        0.0015
     28 C          60.4923   86.9121    8.6220 C.3     1  UNL1        0.0172
     29 C          60.5978   88.3877    8.8698 C.3     1  UNL1        0.0689
     30 N          59.8692   89.3515    7.9808 N.3     1  UNL1       -0.3209
     31 H          60.0518   90.3056    8.2917 H       1  UNL1        0.1189
     32 H          58.8674   89.1650    8.0260 H       1  UNL1        0.1189
@<TRIPOS>BOND
     1    14    15    1
     2    15    16   ar
     3    16    17   ar
     4    17    18   ar
     5    18    12    1
     6    12     1    1
     7     1     2   ar
     8     2     3   ar
     9     3    22    1
    10    24    22    1
    11    24    25    1
    12    25    26    1
    13    26    27    1
    14    27    28    1
    15    28    29    1
    16    29    30    1
    17     3     4   ar
    18     4     5   ar
    19     5     6   ar
    20     6     7    1
    21     7     8   am
    22     7     9    2
    23    18    19   ar
    24    19    20   ar
    25    20    21    1
    26    20    15   ar
    27     6     1   ar
    28    29    24    1
    29    12    13    1
    30    22    23    1
    31    30    31    1
    32    30    32    1
    33     8    10    1
    34     8    11    1
@<TRIPOS>MOLECULE
*****
 32 34 0 0 0
SMALL
GASTEIGER

@<TRIPOS>ATOM
      1 C          64.3007   89.8584   14.4979 C.ar    1  UNL1        0.0764
      2 C          65.2744   90.8375   13.9119 C.ar    1  UNL1        0.0522
      3 C          65.5657   92.1241   14.6259 C.ar    1  UNL1        0.1515
      4 N          64.8835   92.4316   15.9258 N.ar    1  UNL1       -0.1329
      5 N          63.9099   91.4525   16.5119 N.ar    1  UNL1       -0.1409
      6 C          63.6185   90.1659   15.7979 C.ar    1  UNL1        0.1691
      7 C          62.6448   89.1868   16.3839 C.2     1  UNL1        0.2635
      8 N          63.1265   88.1208   17.3229 N.am    1  UNL1       -0.3240
      9 O          61.1896   89.2737   16.0309 O.2     1  UNL1       -0.2686
     10 H          64.0816   88.0638   17.5546 H       1  UNL1        0.1453
     11 H          62.4874   87.4782   17.7075 H       1  UNL1        0.1453
     12 N          64.0094   88.5718   13.7839 N.pl3   1  UNL1       -0.2965
     13 H          64.3824   87.7258   14.1221 H       1  UNL1        0.1537
     14 C          60.5703   88.5813    8.8673 C.3     1  UNL1        0.0323
     15 C          61.4301   88.5789   10.0965 C.ar    1  UNL1       -0.0081
     16 C          61.9015   89.8758   10.6846 C.ar    1  UNL1       -0.0002
     17 C          62.7612   89.8734   11.9137 C.ar    1  UNL1        0.0341
     18 C          63.1496   88.5742   12.5548 C.ar    1  UNL1        0.1318
     19 N          62.6783   87.2773   11.9667 N.ar    1  UNL1       -0.2352
     20 C          61.8185   87.2797   10.7376 C.ar    1  UNL1        0.0568
     21 C          61.3471   85.9827   10.1495 C.3     1  UNL1        0.0518
     22 N          66.5394   93.1032   14.0399 N.pl3   1  UNL1       -0.3170
     23 H          66.9880   93.7591   14.6211 H       1  UNL1        0.1482
     24 C          66.8295   93.0830   12.5683 C.3     1  UNL1        0.0845
     25 C          65.9650   93.8630   11.6227 C.3     1  UNL1        0.0209
     26 C          66.2550   93.8428   10.1511 C.3     1  UNL1        0.0018
     27 C          67.4097   93.0426    9.6252 C.3     1  UNL1        0.0015
     28 C          68.2742   92.2626   10.5709 C.3     1  UNL1        0.0172
     29 C          67.9841   92.2828   12.0424 C.3     1  UNL1        0.0689
     30 N          68.8486   91.5028   12.9880 N.3     1  UNL1       -0.3209
     31 H          68.5098   91.6297   13.9417 H       1  UNL1        0.1189
     32 H          69.8106   91.8352   12.9220 H       1  UNL1        0.1189
@<TRIPOS>BOND
     1    14    15    1
     2    15    16   ar
     3    16    17   ar
     4    17    18   ar
     5    18    12    1
     6    12     1    1
     7     1     2   ar
     8     2     3   ar
     9     3    22    1
    10    24    22    1
    11    24    25    1
    12    25    26    1
    13    26    27    1
    14    27    28    1
    15    28    29    1
    16    29    30    1
    17     3     4   ar
    18     4     5   ar
    19     5     6   ar
    20     6     7    1
    21     7     8   am
    22     7     9    2
    23    18    19   ar
    24    19    20   ar
    25    20    21    1
    26    20    15   ar
    27     6     1   ar
    28    29    24    1
    29    12    13    1
    30    22    23    1
    31    30    31    1
    32    30    32    1
    33     8    10    1
    34     8    11    1
@<TRIPOS>MOLECULE
*****
 32 34 0 0 0
SMALL
GASTEIGER

@<TRIPOS>ATOM
      1 C          61.9409   86.9564    9.7997 C.ar    1  UNL1        0.0764
      2 C          62.3904   87.8244   10.9376 C.ar    1  UNL1        0.0522
      3 C          61.5786   89.0220   11.3333 C.ar    1  UNL1        0.1515
      4 N          60.3174   89.3518   10.5913 N.ar    1  UNL1       -0.1329
      5 N          59.8679   88.4838    9.4535 N.ar    1  UNL1       -0.1409
      6 C          60.6797   87.2861    9.0577 C.ar    1  UNL1        0.1691
      7 C          60.2302   86.4182    7.9199 C.2     1  UNL1        0.2635
      8 N          58.7900   86.4175    7.5006 N.am    1  UNL1       -0.3240
      9 O          61.2209   85.5510    7.2014 O.2     1  UNL1       -0.2686
     10 H          58.1397   86.9867    7.9722 H       1  UNL1        0.1453
     11 H          58.4950   85.8478    6.7538 H       1  UNL1        0.1453
     12 N          62.7526   85.7587    9.4039 N.pl3   1  UNL1       -0.2965
     13 H          63.1285   85.6970    8.4961 H       1  UNL1        0.1537
     14 C          63.7091   81.3445   13.3536 C.3     1  UNL1        0.0323
     15 C          63.4700   82.4481   12.3662 C.ar    1  UNL1       -0.0081
     16 C          63.8650   82.2684   10.9303 C.ar    1  UNL1       -0.0002
     17 C          63.6258   83.3719    9.9429 C.ar    1  UNL1        0.0341
     18 C          62.9918   84.6552   10.3914 C.ar    1  UNL1        0.1318
     19 N          62.5968   84.8349   11.8272 N.ar    1  UNL1       -0.2352
     20 C          62.8359   83.7313   12.8146 C.ar    1  UNL1        0.0568
     21 C          62.4409   83.9111   14.2505 C.3     1  UNL1        0.0518
     22 N          62.0281   89.8900   12.4712 N.pl3   1  UNL1       -0.3170
     23 H          61.5158   89.9041   13.3118 H       1  UNL1        0.1482
     24 C          63.2581   90.7366   12.3282 C.3     1  UNL1        0.0845
     25 C          64.1655   90.9457   13.5043 C.3     1  UNL1        0.0209
     26 C          65.3955   91.7923   13.3613 C.3     1  UNL1        0.0018
     27 C          65.7181   92.4297   12.0423 C.3     1  UNL1        0.0015
     28 C          64.8108   92.2205   10.8664 C.3     1  UNL1        0.0172
     29 C          63.5808   91.3740   11.0093 C.3     1  UNL1        0.0689
     30 N          62.6734   91.1648    9.8334 N.3     1  UNL1       -0.3209
     31 H          61.8931   90.5681   10.1079 H       1  UNL1        0.1189
     32 H          63.1934   90.7183    9.0779 H       1  UNL1        0.1189
@<TRIPOS>BOND
     1    14    15    1
     2    15    16   ar
     3    16    17   ar
     4    17    18   ar
     5    18    12    1
     6    12     1    1
     7     1     2   ar
     8     2     3   ar
     9     3    22    1
    10    24    22    1
    11    24    25    1
    12    25    26    1
    13    26    27    1
    14    27    28    1
    15    28    29    1
    16    29    30    1
    17     3     4   ar
    18     4     5   ar
    19     5     6   ar
    20     6     7    1
    21     7     8   am
    22     7     9    2
    23    18    19   ar
    24    19    20   ar
    25    20    21    1
    26    20    15   ar
    27     6     1   ar
    28    29    24    1
    29    12    13    1
    30    22    23    1
    31    30    31    1
    32    30    32    1
    33     8    10    1
    34     8    11    1
@<TRIPOS>MOLECULE
*****
 32 34 0 0 0
SMALL
GASTEIGER

@<TRIPOS>ATOM
      1 C          62.1460   89.1737   11.7423 C.ar    1  UNL1        0.0764
      2 C          62.9821   88.1480   12.4487 C.ar    1  UNL1        0.0522
      3 C          62.6959   86.6878   12.2597 C.ar    1  UNL1        0.1515
      4 N          61.5737   86.2532   11.3644 N.ar    1  UNL1       -0.1329
      5 N          60.7376   87.2788   10.6580 N.ar    1  UNL1       -0.1409
      6 C          61.0237   88.7391   10.8469 C.ar    1  UNL1        0.1691
      7 C          60.1877   89.7647   10.1405 C.2     1  UNL1        0.2635
      8 N          60.0649   89.7321    8.6459 N.am    1  UNL1       -0.3240
      9 O          59.4744   90.8229   10.9287 O.2     1  UNL1       -0.2686
     10 H          60.5331   89.0375    8.1286 H       1  UNL1        0.1453
     11 H          59.5161   90.4053    8.1823 H       1  UNL1        0.1453
     12 N          62.4322   90.6340   11.9312 N.pl3   1  UNL1       -0.2965
     13 H          61.7552   91.3044   11.6832 H       1  UNL1        0.1537
     14 C          67.7026   92.3894   14.1986 C.3     1  UNL1        0.0323
     15 C          66.3850   91.9505   13.6317 C.ar    1  UNL1       -0.0081
     16 C          65.4112   91.2005   14.4914 C.ar    1  UNL1       -0.0002
     17 C          64.0935   90.7617   13.9245 C.ar    1  UNL1        0.0341
     18 C          63.7498   91.0728   12.4980 C.ar    1  UNL1        0.1318
     19 N          64.7236   91.8228   11.6384 N.ar    1  UNL1       -0.2352
     20 C          66.0412   92.2617   12.2052 C.ar    1  UNL1        0.0568
     21 C          67.0151   93.0117   11.3455 C.3     1  UNL1        0.0518
     22 N          63.5320   85.6621   12.9662 N.pl3   1  UNL1       -0.3170
     23 H          64.3836   85.9246   13.3847 H       1  UNL1        0.1482
     24 C          63.0706   84.2365   13.0348 C.3     1  UNL1        0.0845
     25 C          63.2494   83.3325   11.8512 C.3     1  UNL1        0.0209
     26 C          62.7880   81.9068   11.9199 C.3     1  UNL1        0.0018
     27 C          62.1478   81.3852   13.1722 C.3     1  UNL1        0.0015
     28 C          61.9691   82.2892   14.3557 C.3     1  UNL1        0.0172
     29 C          62.4305   83.7148   14.2870 C.3     1  UNL1        0.0689
     30 N          62.2518   84.6188   15.4706 N.3     1  UNL1       -0.3209
     31 H          62.6190   85.5445   15.2499 H       1  UNL1        0.1189
     32 H          62.7551   84.2352   16.2705 H       1  UNL1        0.1189
@<TRIPOS>BOND
     1    14    15    1
     2    15    16   ar
     3    16    17   ar
     4    17    18   ar
     5    18    12    1
     6    12     1    1
     7     1     2   ar
     8     2     3   ar
     9     3    22    1
    10    24    22    1
    11    24    25    1
    12    25    26    1
    13    26    27    1
    14    27    28    1
    15    28    29    1
    16    29    30    1
    17     3     4   ar
    18     4     5   ar
    19     5     6   ar
    20     6     7    1
    21     7     8   am
    22     7     9    2
    23    18    19   ar
    24    19    20   ar
    25    20    21    1
    26    20    15   ar
    27     6     1   ar
    28    29    24    1
    29    12    13    1
    30    22    23    1
    31    30    31    1
    32    30    32    1
    33     8    10    1
    34     8    11    1
@<TRIPOS>MOLECULE
*****
 32 34 0 0 0
SMALL
GASTEIGER

@<TRIPOS>ATOM
      1 C          61.6701   87.8403   11.1472 C.ar    1  UNL1        0.0764
      2 C          62.5439   86.8954   11.9178 C.ar    1  UNL1        0.0522
      3 C          62.7525   85.4946   11.4236 C.ar    1  UNL1        0.1515
      4 N          62.0872   85.0386   10.1589 N.ar    1  UNL1       -0.1329
      5 N          61.2134   85.9834    9.3884 N.ar    1  UNL1       -0.1409
      6 C          61.0048   87.3843    9.8825 C.ar    1  UNL1        0.1691
      7 C          60.1310   88.3291    9.1120 C.2     1  UNL1        0.2635
      8 N          59.3409   87.8316    7.9380 N.am    1  UNL1       -0.3240
      9 O          60.0472   89.7713    9.5155 O.2     1  UNL1       -0.2686
     10 H          59.3959   86.8850    7.6732 H       1  UNL1        0.1453
     11 H          58.7674   88.4517    7.4322 H       1  UNL1        0.1453
     12 N          61.4615   89.2411   11.6414 N.pl3   1  UNL1       -0.2965
     13 H          60.5526   89.5625   11.8409 H       1  UNL1        0.1537
     14 C          66.1667   92.8856   12.4023 C.3     1  UNL1        0.0323
     15 C          64.9904   91.9745   12.2120 C.ar    1  UNL1       -0.0081
     16 C          64.3245   91.8794   10.8714 C.ar    1  UNL1       -0.0002
     17 C          63.1482   90.9682   10.6812 C.ar    1  UNL1        0.0341
     18 C          62.6378   90.1522   11.8316 C.ar    1  UNL1        0.1318
     19 N          63.3037   90.2473   13.1723 N.ar    1  UNL1       -0.2352
     20 C          64.4800   91.1585   13.3625 C.ar    1  UNL1        0.0568
     21 C          65.1459   91.2535   14.7033 C.3     1  UNL1        0.0518
     22 N          63.6263   84.5498   12.1942 N.pl3   1  UNL1       -0.3170
     23 H          64.5550   84.7993   12.4052 H       1  UNL1        0.1482
     24 C          63.0852   83.2248   12.6431 C.3     1  UNL1        0.0845
     25 C          63.2528   82.0131   11.7749 C.3     1  UNL1        0.0209
     26 C          62.7117   80.6881   12.2238 C.3     1  UNL1        0.0018
     27 C          62.0029   80.5748   13.5410 C.3     1  UNL1        0.0015
     28 C          61.8353   81.7864   14.4092 C.3     1  UNL1        0.0172
     29 C          62.3764   83.1114   13.9602 C.3     1  UNL1        0.0689
     30 N          62.2089   84.3231   14.8284 N.3     1  UNL1       -0.3209
     31 H          62.6335   85.1301   14.3714 H       1  UNL1        0.1189
     32 H          62.6637   84.1629   15.7272 H       1  UNL1        0.1189
@<TRIPOS>BOND
     1    14    15    1
     2    15    16   ar
     3    16    17   ar
     4    17    18   ar
     5    18    12    1
     6    12     1    1
     7     1     2   ar
     8     2     3   ar
     9     3    22    1
    10    24    22    1
    11    24    25    1
    12    25    26    1
    13    26    27    1
    14    27    28    1
    15    28    29    1
    16    29    30    1
    17     3     4   ar
    18     4     5   ar
    19     5     6   ar
    20     6     7    1
    21     7     8   am
    22     7     9    2
    23    18    19   ar
    24    19    20   ar
    25    20    21    1
    26    20    15   ar
    27     6     1   ar
    28    29    24    1
    29    12    13    1
    30    22    23    1
    31    30    31    1
    32    30    32    1
    33     8    10    1
    34     8    11    1
