@<TRIPOS>MOLECULE
*****
 36 40 0 0 0
SMALL
GASTEIGER

@<TRIPOS>ATOM
      1 C          64.1187   90.7834   12.1879 C.ar    1  UNL1       -0.0005
      2 C          63.3899   91.5605   11.1321 C.ar    1  UNL1       -0.0009
      3 C          62.3650   90.8804   10.2736 C.ar    1  UNL1        0.0170
      4 C          62.0689   89.4232   10.4710 C.ar    1  UNL1        0.0625
      5 C          62.7977   88.6461   11.5269 C.ar    1  UNL1        0.0158
      6 C          63.8226   89.3262   12.3853 C.ar    1  UNL1       -0.0009
      7 C          62.5016   87.1890   11.7243 C.ar    1  UNL1        0.0061
      8 C          61.4767   86.5089   10.8658 C.ar    1  UNL1        0.0608
      9 C          60.7479   87.2860    9.8098 C.ar    1  UNL1        0.2610
     10 O          59.7230   86.6059    8.9514 O.2     1  UNL1       -0.2670
     11 N          61.0440   88.7432    9.6124 N.ar    1  UNL1       -0.2935
     12 C          60.3152   89.5203    8.5566 C.3     1  UNL1        0.1335
     13 C          63.2304   86.4119   12.7802 C.ar    1  UNL1        0.0010
     14 C          63.9272   87.1332   13.8956 C.ar    1  UNL1        0.0001
     15 C          64.6560   86.3560   14.9515 C.ar    1  UNL1        0.0009
     16 C          64.6880   84.8576   14.8920 C.ar    1  UNL1        0.0114
     17 C          63.9912   84.1362   13.7765 C.ar    1  UNL1        0.0577
     18 CL         64.0233   82.6377   13.7170 Cl      1  UNL1       -0.0822
     19 C          63.2624   84.9133   12.7207 C.ar    1  UNL1        0.0114
     20 C          65.1437   91.4635   13.0465 C.3     1  UNL1        0.1128
     21 N          64.6566   90.6935   14.2380 N.3     1  UNL1       -0.3125
     22 H          65.2033   90.9550   15.0585 H       1  UNL1        0.1197
     23 H          64.7622   89.6941   14.0634 H       1  UNL1        0.1197
     24 C          66.1686   92.1435   13.9049 C.ar    1  UNL1       -0.0006
     25 C          67.0077   91.3378   14.8520 C.ar    1  UNL1       -0.0015
     26 C          68.0326   92.0178   15.7104 C.ar    1  UNL1        0.0111
     27 C          68.2185   93.5036   15.6219 C.ar    1  UNL1        0.0577
     28 CL         69.2435   94.1837   16.4804 Cl      1  UNL1       -0.0822
     29 C          67.3795   94.3094   14.6750 C.ar    1  UNL1        0.0111
     30 C          66.3545   93.6293   13.8165 C.ar    1  UNL1       -0.0015
     31 C          68.1527   91.3500   11.7887 C.3     1  UNL1        0.1318
     32 N          67.0140   92.1813   11.2768 N.ar    1  UNL1       -0.3088
     33 C          67.0584   93.1064   10.0968 C.ar    1  UNL1        0.1784
     34 N          65.7026   93.7303    9.9457 N.ar    1  UNL1       -0.2226
     35 C          64.8203   93.1908   11.0323 C.ar    1  UNL1        0.1152
     36 C          65.6308   92.2334   11.8550 C.ar    1  UNL1        0.0780
@<TRIPOS>BOND
     1    31    32    1
     2    32    33   ar
     3    33    34   ar
     4    34    35   ar
     5    35    36   ar
     6    36    20    1
     7    20    21    1
     8    20    24    1
     9    24    25   ar
    10    25    26   ar
    11    26    27   ar
    12    27    28    1
    13    27    29   ar
    14    29    30   ar
    15    20     1    1
    16     1     2   ar
    17     2     3   ar
    18     3     4   ar
    19     4     5   ar
    20     5     6   ar
    21     5     7   ar
    22     7    13    1
    23    13    14   ar
    24    14    15   ar
    25    15    16   ar
    26    16    17   ar
    27    17    18    1
    28    17    19   ar
    29     7     8   ar
    30     8     9   ar
    31     9    10    2
    32     9    11   ar
    33    11    12    1
    34    36    32   ar
    35    30    24   ar
    36     6     1   ar
    37    19    13   ar
    38    11     4   ar
    39    21    22    1
    40    21    23    1
@<TRIPOS>MOLECULE
*****
 36 40 0 0 0
SMALL
GASTEIGER

@<TRIPOS>ATOM
      1 C          58.1866   94.9211   -3.9831 C.ar    1  UNL1       -0.0005
      2 C          58.6499   94.9507   -5.4094 C.ar    1  UNL1       -0.0009
      3 C          60.0708   94.6055   -5.7437 C.ar    1  UNL1        0.0170
      4 C          61.0285   94.2307   -4.6517 C.ar    1  UNL1        0.0625
      5 C          60.5652   94.2011   -3.2254 C.ar    1  UNL1        0.0158
      6 C          59.1443   94.5463   -2.8911 C.ar    1  UNL1       -0.0009
      7 C          61.5228   93.8263   -2.1334 C.ar    1  UNL1        0.0061
      8 C          62.9437   93.4810   -2.4677 C.ar    1  UNL1        0.0608
      9 C          63.4070   93.5106   -3.8941 C.ar    1  UNL1        0.2610
     10 O          64.8279   93.1654   -4.2284 O.2     1  UNL1       -0.2670
     11 N          62.4494   93.8854   -4.9861 N.ar    1  UNL1       -0.2935
     12 C          62.9127   93.9150   -6.4124 C.3     1  UNL1        0.1335
     13 C          61.0595   93.7967   -0.7071 C.ar    1  UNL1        0.0010
     14 C          60.7293   92.4879   -0.0527 C.ar    1  UNL1        0.0001
     15 C          60.2660   92.4583    1.3737 C.ar    1  UNL1        0.0009
     16 C          60.1329   93.7375    2.1457 C.ar    1  UNL1        0.0114
     17 C          60.4631   95.0462    1.4913 C.ar    1  UNL1        0.0577
     18 CL         60.3300   96.3254    2.2634 Cl      1  UNL1       -0.0822
     19 C          60.9264   95.0758    0.0650 C.ar    1  UNL1        0.0114
     20 C          56.7657   95.2663   -3.6487 C.3     1  UNL1        0.1128
     21 N          56.9715   96.6466   -4.1987 N.3     1  UNL1       -0.3125
     22 H          56.1072   97.1807   -4.1090 H       1  UNL1        0.1197
     23 H          57.2326   96.5850   -5.1828 H       1  UNL1        0.1197
     24 C          55.3448   95.6115   -3.3143 C.ar    1  UNL1       -0.0006
     25 C          54.9372   95.8074   -1.8841 C.ar    1  UNL1       -0.0015
     26 C          53.5163   96.1526   -1.5497 C.ar    1  UNL1        0.0111
     27 C          52.5029   96.3018   -2.6455 C.ar    1  UNL1        0.0577
     28 CL         51.0820   96.6470   -2.3111 Cl      1  UNL1       -0.0822
     29 C          52.9104   96.1059   -4.0757 C.ar    1  UNL1        0.0111
     30 C          54.3314   95.7607   -4.4101 C.ar    1  UNL1       -0.0015
     31 C          56.0080   92.6053   -5.3790 C.3     1  UNL1        0.1318
     32 N          56.2115   92.6629   -3.8940 N.ar    1  UNL1       -0.3088
     33 C          56.1026   91.5075   -2.9437 C.ar    1  UNL1        0.1784
     34 N          56.3835   92.0166   -1.5609 N.ar    1  UNL1       -0.2226
     35 C          56.6661   93.4867   -1.6567 C.ar    1  UNL1        0.1152
     36 C          56.5598   93.8861   -3.0987 C.ar    1  UNL1        0.0780
@<TRIPOS>BOND
     1    31    32    1
     2    32    33   ar
     3    33    34   ar
     4    34    35   ar
     5    35    36   ar
     6    36    20    1
     7    20    21    1
     8    20    24    1
     9    24    25   ar
    10    25    26   ar
    11    26    27   ar
    12    27    28    1
    13    27    29   ar
    14    29    30   ar
    15    20     1    1
    16     1     2   ar
    17     2     3   ar
    18     3     4   ar
    19     4     5   ar
    20     5     6   ar
    21     5     7   ar
    22     7    13    1
    23    13    14   ar
    24    14    15   ar
    25    15    16   ar
    26    16    17   ar
    27    17    18    1
    28    17    19   ar
    29     7     8   ar
    30     8     9   ar
    31     9    10    2
    32     9    11   ar
    33    11    12    1
    34    36    32   ar
    35    30    24   ar
    36     6     1   ar
    37    19    13   ar
    38    11     4   ar
    39    21    22    1
    40    21    23    1
@<TRIPOS>MOLECULE
*****
 36 40 0 0 0
SMALL
GASTEIGER

@<TRIPOS>ATOM
      1 C          63.0828   90.1350   10.9397 C.ar    1  UNL1       -0.0005
      2 C          63.5970   91.3930   10.3051 C.ar    1  UNL1       -0.0009
      3 C          64.4829   92.3186   11.0852 C.ar    1  UNL1        0.0170
      4 C          64.8544   91.9862   12.4999 C.ar    1  UNL1        0.0625
      5 C          64.3401   90.7281   13.1345 C.ar    1  UNL1        0.0158
      6 C          63.4543   89.8025   12.3545 C.ar    1  UNL1       -0.0009
      7 C          64.7116   90.3957   14.5493 C.ar    1  UNL1        0.0061
      8 C          65.5974   91.3213   15.3293 C.ar    1  UNL1        0.0608
      9 C          66.1118   92.5794   14.6947 C.ar    1  UNL1        0.2610
     10 O          66.9976   93.5050   15.4748 O.2     1  UNL1       -0.2670
     11 N          65.7403   92.9118   13.2800 N.ar    1  UNL1       -0.2935
     12 C          66.2545   94.1699   12.6453 C.3     1  UNL1        0.1335
     13 C          64.1973   89.1377   15.1839 C.ar    1  UNL1        0.0010
     14 C          63.3075   89.2151   16.3890 C.ar    1  UNL1        0.0001
     15 C          62.7932   87.9570   17.0237 C.ar    1  UNL1        0.0009
     16 C          63.1687   86.6216   16.4532 C.ar    1  UNL1        0.0114
     17 C          64.0585   86.5441   15.2482 C.ar    1  UNL1        0.0577
     18 CL         64.4341   85.2085   14.6777 Cl      1  UNL1       -0.0822
     19 C          64.5728   87.8021   14.6135 C.ar    1  UNL1        0.0114
     20 C          62.1969   89.2093   10.1597 C.3     1  UNL1        0.1128
     21 N          63.3972   88.6623    9.4456 N.3     1  UNL1       -0.3125
     22 H          63.1013   87.9449    8.7836 H       1  UNL1        0.1197
     23 H          64.0400   88.2543   10.1244 H       1  UNL1        0.1197
     24 C          61.3110   88.2837    9.3797 C.ar    1  UNL1       -0.0006
     25 C          60.1287   88.8281    8.6341 C.ar    1  UNL1       -0.0015
     26 C          59.2428   87.9025    7.8541 C.ar    1  UNL1        0.0111
     27 C          59.5392   86.4325    7.8196 C.ar    1  UNL1        0.0577
     28 CL         58.6534   85.5069    7.0396 Cl      1  UNL1       -0.0822
     29 C          60.7215   85.8881    8.5651 C.ar    1  UNL1        0.0111
     30 C          61.6074   86.8137    9.3452 C.ar    1  UNL1       -0.0015
     31 C          60.3198   87.5848   12.2779 C.3     1  UNL1        0.1318
     32 N          60.1337   89.0096   11.8475 N.ar    1  UNL1       -0.3088
     33 C          59.0522   89.9378   12.3151 C.ar    1  UNL1        0.1784
     34 N          59.2465   91.2583   11.6304 N.ar    1  UNL1       -0.2226
     35 C          60.4483   91.1461   10.7396 C.ar    1  UNL1        0.1152
     36 C          60.9966   89.7563   10.8738 C.ar    1  UNL1        0.0780
@<TRIPOS>BOND
     1    31    32    1
     2    32    33   ar
     3    33    34   ar
     4    34    35   ar
     5    35    36   ar
     6    36    20    1
     7    20    21    1
     8    20    24    1
     9    24    25   ar
    10    25    26   ar
    11    26    27   ar
    12    27    28    1
    13    27    29   ar
    14    29    30   ar
    15    20     1    1
    16     1     2   ar
    17     2     3   ar
    18     3     4   ar
    19     4     5   ar
    20     5     6   ar
    21     5     7   ar
    22     7    13    1
    23    13    14   ar
    24    14    15   ar
    25    15    16   ar
    26    16    17   ar
    27    17    18    1
    28    17    19   ar
    29     7     8   ar
    30     8     9   ar
    31     9    10    2
    32     9    11   ar
    33    11    12    1
    34    36    32   ar
    35    30    24   ar
    36     6     1   ar
    37    19    13   ar
    38    11     4   ar
    39    21    22    1
    40    21    23    1
@<TRIPOS>MOLECULE
*****
 36 40 0 0 0
SMALL
GASTEIGER

@<TRIPOS>ATOM
      1 C          63.0309   85.9384   12.7089 C.ar    1  UNL1       -0.0005
      2 C          63.8526   86.7033   13.7038 C.ar    1  UNL1       -0.0009
      3 C          64.0713   88.1760   13.5216 C.ar    1  UNL1        0.0170
      4 C          63.4683   88.8838   12.3446 C.ar    1  UNL1        0.0625
      5 C          62.6466   88.1189   11.3498 C.ar    1  UNL1        0.0158
      6 C          62.4279   86.6462   11.5320 C.ar    1  UNL1       -0.0009
      7 C          62.0435   88.8268   10.1728 C.ar    1  UNL1        0.0061
      8 C          62.2622   90.2995    9.9906 C.ar    1  UNL1        0.0608
      9 C          63.0840   91.0644   10.9854 C.ar    1  UNL1        0.2610
     10 O          63.3027   92.5372   10.8032 O.2     1  UNL1       -0.2670
     11 N          63.6870   90.3566   12.1624 N.ar    1  UNL1       -0.2935
     12 C          64.5087   91.1215   13.1572 C.3     1  UNL1        0.1335
     13 C          61.2218   88.0619    9.1780 C.ar    1  UNL1        0.0010
     14 C          59.8620   88.5602    8.7872 C.ar    1  UNL1        0.0001
     15 C          59.0403   87.7952    7.7923 C.ar    1  UNL1        0.0009
     16 C          59.5783   86.5321    7.1883 C.ar    1  UNL1        0.0114
     17 C          60.9381   86.0338    7.5791 C.ar    1  UNL1        0.0577
     18 CL         61.4762   84.7705    6.9750 Cl      1  UNL1       -0.0822
     19 C          61.7598   86.7987    8.5739 C.ar    1  UNL1        0.0114
     20 C          62.8122   84.4656   12.8911 C.3     1  UNL1        0.1128
     21 N          62.7717   84.2874   11.4023 N.3     1  UNL1       -0.3125
     22 H          62.6223   83.3028   11.1817 H       1  UNL1        0.1197
     23 H          63.6562   84.5959   10.9988 H       1  UNL1        0.1197
     24 C          62.5935   82.9929   13.0733 C.ar    1  UNL1       -0.0006
     25 C          63.2296   82.0175   12.1277 C.ar    1  UNL1       -0.0015
     26 C          63.0108   80.5448   12.3099 C.ar    1  UNL1        0.0111
     27 C          62.1561   80.0474   13.4377 C.ar    1  UNL1        0.0577
     28 CL         61.9374   78.5746   13.6199 Cl      1  UNL1       -0.0822
     29 C          61.5200   81.0226   14.3833 C.ar    1  UNL1        0.0111
     30 C          61.7387   82.4954   14.2011 C.ar    1  UNL1       -0.0015
     31 C          65.4134   84.0073   14.8076 C.3     1  UNL1        0.1318
     32 N          64.0484   84.4331   15.2609 N.ar    1  UNL1       -0.3088
     33 C          63.6394   84.7230   16.6746 C.ar    1  UNL1        0.1784
     34 N          62.1909   85.1128   16.6675 N.ar    1  UNL1       -0.2226
     35 C          61.7047   85.0639   15.2492 C.ar    1  UNL1        0.1152
     36 C          62.8527   84.6437   14.3799 C.ar    1  UNL1        0.0780
@<TRIPOS>BOND
     1    31    32    1
     2    32    33   ar
     3    33    34   ar
     4    34    35   ar
     5    35    36   ar
     6    36    20    1
     7    20    21    1
     8    20    24    1
     9    24    25   ar
    10    25    26   ar
    11    26    27   ar
    12    27    28    1
    13    27    29   ar
    14    29    30   ar
    15    20     1    1
    16     1     2   ar
    17     2     3   ar
    18     3     4   ar
    19     4     5   ar
    20     5     6   ar
    21     5     7   ar
    22     7    13    1
    23    13    14   ar
    24    14    15   ar
    25    15    16   ar
    26    16    17   ar
    27    17    18    1
    28    17    19   ar
    29     7     8   ar
    30     8     9   ar
    31     9    10    2
    32     9    11   ar
    33    11    12    1
    34    36    32   ar
    35    30    24   ar
    36     6     1   ar
    37    19    13   ar
    38    11     4   ar
    39    21    22    1
    40    21    23    1
@<TRIPOS>MOLECULE
*****
 36 40 0 0 0
SMALL
GASTEIGER

@<TRIPOS>ATOM
      1 C          58.7893   94.4642   -1.8925 C.ar    1  UNL1       -0.0005
      2 C          58.1792   94.1625   -0.5558 C.ar    1  UNL1       -0.0009
      3 C          59.0467   93.7011    0.5775 C.ar    1  UNL1        0.0170
      4 C          60.5243   93.5415    0.3742 C.ar    1  UNL1        0.0625
      5 C          61.1344   93.8433   -0.9624 C.ar    1  UNL1        0.0158
      6 C          60.2669   94.3047   -2.0958 C.ar    1  UNL1       -0.0009
      7 C          62.6119   93.6837   -1.1657 C.ar    1  UNL1        0.0061
      8 C          63.4794   93.2223   -0.0323 C.ar    1  UNL1        0.0608
      9 C          62.8693   92.9205    1.3044 C.ar    1  UNL1        0.2610
     10 O          63.7368   92.4591    2.4378 O.2     1  UNL1       -0.2670
     11 N          61.3918   93.0800    1.5077 N.ar    1  UNL1       -0.2935
     12 C          60.7817   92.7783    2.8443 C.3     1  UNL1        0.1335
     13 C          63.2220   93.9855   -2.5023 C.ar    1  UNL1        0.0010
     14 C          63.5288   95.4033   -2.8838 C.ar    1  UNL1        0.0001
     15 C          64.1389   95.7051   -4.2206 C.ar    1  UNL1        0.0009
     16 C          64.4423   94.5890   -5.1757 C.ar    1  UNL1        0.0114
     17 C          64.1356   93.1711   -4.7941 C.ar    1  UNL1        0.0577
     18 CL         64.4390   92.0550   -5.7493 Cl      1  UNL1       -0.0822
     19 C          63.5255   92.8694   -3.4575 C.ar    1  UNL1        0.0114
     20 C          57.9219   94.9257   -3.0259 C.3     1  UNL1        0.1128
     21 N          58.4278   96.3259   -2.8432 N.3     1  UNL1       -0.3125
     22 H          57.9863   96.9390   -3.5285 H       1  UNL1        0.1197
     23 H          59.4392   96.3418   -2.9745 H       1  UNL1        0.1197
     24 C          57.0544   95.3870   -4.1593 C.ar    1  UNL1       -0.0006
     25 C          57.3197   94.9002   -5.5532 C.ar    1  UNL1       -0.0015
     26 C          56.4523   95.3616   -6.6866 C.ar    1  UNL1        0.0111
     27 C          55.3195   96.3097   -6.4262 C.ar    1  UNL1        0.0577
     28 CL         54.4520   96.7711   -7.5596 Cl      1  UNL1       -0.0822
     29 C          55.0541   96.7965   -5.0325 C.ar    1  UNL1        0.0111
     30 C          55.9216   96.3351   -3.8990 C.ar    1  UNL1       -0.0015
     31 C          55.0953   93.7454   -1.9005 C.3     1  UNL1        0.1318
     32 N          56.1166   92.9829   -2.6913 N.ar    1  UNL1       -0.3088
     33 C          56.0181   91.5441   -3.1037 C.ar    1  UNL1        0.1784
     34 N          57.2564   91.1973   -3.8759 N.ar    1  UNL1       -0.2226
     35 C          58.1204   92.4219   -3.9408 C.ar    1  UNL1        0.1152
     36 C          57.4159   93.5255   -3.2087 C.ar    1  UNL1        0.0780
@<TRIPOS>BOND
     1    31    32    1
     2    32    33   ar
     3    33    34   ar
     4    34    35   ar
     5    35    36   ar
     6    36    20    1
     7    20    21    1
     8    20    24    1
     9    24    25   ar
    10    25    26   ar
    11    26    27   ar
    12    27    28    1
    13    27    29   ar
    14    29    30   ar
    15    20     1    1
    16     1     2   ar
    17     2     3   ar
    18     3     4   ar
    19     4     5   ar
    20     5     6   ar
    21     5     7   ar
    22     7    13    1
    23    13    14   ar
    24    14    15   ar
    25    15    16   ar
    26    16    17   ar
    27    17    18    1
    28    17    19   ar
    29     7     8   ar
    30     8     9   ar
    31     9    10    2
    32     9    11   ar
    33    11    12    1
    34    36    32   ar
    35    30    24   ar
    36     6     1   ar
    37    19    13   ar
    38    11     4   ar
    39    21    22    1
    40    21    23    1
@<TRIPOS>MOLECULE
*****
 36 40 0 0 0
SMALL
GASTEIGER

@<TRIPOS>ATOM
      1 C          63.4782   90.2352   11.9411 C.ar    1  UNL1       -0.0005
      2 C          62.6773   91.0843   10.9990 C.ar    1  UNL1       -0.0009
      3 C          61.6894   90.4452   10.0687 C.ar    1  UNL1        0.0170
      4 C          61.5025   88.9569   10.0804 C.ar    1  UNL1        0.0625
      5 C          62.3033   88.1078   11.0225 C.ar    1  UNL1        0.0158
      6 C          63.2912   88.7470   11.9528 C.ar    1  UNL1       -0.0009
      7 C          62.1164   86.6196   11.0342 C.ar    1  UNL1        0.0061
      8 C          61.1285   85.9804   10.1039 C.ar    1  UNL1        0.0608
      9 C          60.3275   86.8295    9.1618 C.ar    1  UNL1        0.2610
     10 O          59.3396   86.1904    8.2315 O.2     1  UNL1       -0.2670
     11 N          60.5145   88.3178    9.1500 N.ar    1  UNL1       -0.2935
     12 C          59.7136   89.1669    8.2080 C.3     1  UNL1        0.1335
     13 C          62.9173   85.7705   11.9763 C.ar    1  UNL1        0.0010
     14 C          63.3179   86.3109   13.3170 C.ar    1  UNL1        0.0001
     15 C          64.1188   85.4617   14.2591 C.ar    1  UNL1        0.0009
     16 C          64.5191   84.0722   13.8605 C.ar    1  UNL1        0.0114
     17 C          64.1185   83.5317   12.5198 C.ar    1  UNL1        0.0577
     18 CL         64.5188   82.1421   12.1212 Cl      1  UNL1       -0.0822
     19 C          63.3176   84.3809   11.5777 C.ar    1  UNL1        0.0114
     20 C          64.4662   90.8744   12.8714 C.3     1  UNL1        0.1128
     21 N          65.1219   91.5557   11.7071 N.3     1  UNL1       -0.3125
     22 H          65.9039   92.1199   12.0397 H       1  UNL1        0.1197
     23 H          64.4438   92.1569   11.2390 H       1  UNL1        0.1197
     24 C          65.4540   91.5134   13.8018 C.ar    1  UNL1       -0.0006
     25 C          66.8795   91.6961   13.3720 C.ar    1  UNL1       -0.0015
     26 C          67.8674   92.3352   14.3024 C.ar    1  UNL1        0.0111
     27 C          67.4299   92.7916   15.6626 C.ar    1  UNL1        0.0577
     28 CL         68.4177   93.4307   16.5930 Cl      1  UNL1       -0.0822
     29 C          66.0045   92.6090   16.0924 C.ar    1  UNL1        0.0111
     30 C          65.0165   91.9699   15.1621 C.ar    1  UNL1       -0.0015
     31 C          65.8105   88.5706   14.7515 C.3     1  UNL1        0.1318
     32 N          64.4283   89.1340   14.9000 N.ar    1  UNL1       -0.3088
     33 C          63.4214   88.7375   15.9387 C.ar    1  UNL1        0.1784
     34 N          62.1811   89.5513   15.7165 N.ar    1  UNL1       -0.2226
     35 C          62.4216   90.4509   14.5404 C.ar    1  UNL1        0.1152
     36 C          63.8104   90.1930   14.0358 C.ar    1  UNL1        0.0780
@<TRIPOS>BOND
     1    31    32    1
     2    32    33   ar
     3    33    34   ar
     4    34    35   ar
     5    35    36   ar
     6    36    20    1
     7    20    21    1
     8    20    24    1
     9    24    25   ar
    10    25    26   ar
    11    26    27   ar
    12    27    28    1
    13    27    29   ar
    14    29    30   ar
    15    20     1    1
    16     1     2   ar
    17     2     3   ar
    18     3     4   ar
    19     4     5   ar
    20     5     6   ar
    21     5     7   ar
    22     7    13    1
    23    13    14   ar
    24    14    15   ar
    25    15    16   ar
    26    16    17   ar
    27    17    18    1
    28    17    19   ar
    29     7     8   ar
    30     8     9   ar
    31     9    10    2
    32     9    11   ar
    33    11    12    1
    34    36    32   ar
    35    30    24   ar
    36     6     1   ar
    37    19    13   ar
    38    11     4   ar
    39    21    22    1
    40    21    23    1
@<TRIPOS>MOLECULE
*****
 36 40 0 0 0
SMALL
GASTEIGER

@<TRIPOS>ATOM
      1 C          58.6668   94.4368   -0.9086 C.ar    1  UNL1       -0.0005
      2 C          58.6652   93.8639    0.4777 C.ar    1  UNL1       -0.0009
      3 C          59.9513   93.4133    1.1044 C.ar    1  UNL1        0.0170
      4 C          61.2390   93.5355    0.3449 C.ar    1  UNL1        0.0625
      5 C          61.2406   94.1084   -1.0414 C.ar    1  UNL1        0.0158
      6 C          59.9545   94.5590   -1.6681 C.ar    1  UNL1       -0.0009
      7 C          62.5283   94.2306   -1.8010 C.ar    1  UNL1        0.0061
      8 C          63.8144   93.7799   -1.1742 C.ar    1  UNL1        0.0608
      9 C          63.8129   93.2070    0.2121 C.ar    1  UNL1        0.2610
     10 O          65.0990   92.7563    0.8388 O.2     1  UNL1       -0.2670
     11 N          62.5252   93.0848    0.9716 N.ar    1  UNL1       -0.2935
     12 C          62.5236   92.5119    2.3579 C.3     1  UNL1        0.1335
     13 C          62.5299   94.8034   -3.1872 C.ar    1  UNL1        0.0010
     14 C          62.3852   96.2829   -3.3875 C.ar    1  UNL1        0.0001
     15 C          62.3868   96.8558   -4.7739 C.ar    1  UNL1        0.0009
     16 C          62.5331   95.9492   -5.9598 C.ar    1  UNL1        0.0114
     17 C          62.6778   94.4697   -5.7595 C.ar    1  UNL1        0.0577
     18 CL         62.8240   93.5630   -6.9456 Cl      1  UNL1       -0.0822
     19 C          62.6762   93.8968   -4.3733 C.ar    1  UNL1        0.0114
     20 C          57.3807   94.8875   -1.5353 C.3     1  UNL1        0.1128
     21 N          57.4869   96.1971   -0.8118 N.3     1  UNL1       -0.3125
     22 H          56.6865   96.7829   -1.0496 H       1  UNL1        0.1197
     23 H          58.3478   96.6693   -1.0881 H       1  UNL1        0.1197
     24 C          56.0946   95.3381   -2.1621 C.ar    1  UNL1       -0.0006
     25 C          54.7830   94.9252   -1.5627 C.ar    1  UNL1       -0.0015
     26 C          53.4969   95.3758   -2.1894 C.ar    1  UNL1        0.0111
     27 C          53.5224   96.2394   -3.4157 C.ar    1  UNL1        0.0577
     28 CL         52.2363   96.6900   -4.0424 Cl      1  UNL1       -0.0822
     29 C          54.8339   96.6523   -4.0151 C.ar    1  UNL1        0.0111
     30 C          56.1200   96.2016   -3.3884 C.ar    1  UNL1       -0.0015
     31 C          58.6042   94.2218   -4.4865 C.3     1  UNL1        0.1318
     32 N          57.8368   93.2718   -3.6155 N.ar    1  UNL1       -0.3088
     33 C          57.4971   91.8491   -3.9479 C.ar    1  UNL1        0.1784
     34 N          56.7248   91.2758   -2.7969 N.ar    1  UNL1       -0.2226
     35 C          56.5871   92.3443   -1.7530 C.ar    1  UNL1        0.1152
     36 C          57.2744   93.5779   -2.2589 C.ar    1  UNL1        0.0780
@<TRIPOS>BOND
     1    31    32    1
     2    32    33   ar
     3    33    34   ar
     4    34    35   ar
     5    35    36   ar
     6    36    20    1
     7    20    21    1
     8    20    24    1
     9    24    25   ar
    10    25    26   ar
    11    26    27   ar
    12    27    28    1
    13    27    29   ar
    14    29    30   ar
    15    20     1    1
    16     1     2   ar
    17     2     3   ar
    18     3     4   ar
    19     4     5   ar
    20     5     6   ar
    21     5     7   ar
    22     7    13    1
    23    13    14   ar
    24    14    15   ar
    25    15    16   ar
    26    16    17   ar
    27    17    18    1
    28    17    19   ar
    29     7     8   ar
    30     8     9   ar
    31     9    10    2
    32     9    11   ar
    33    11    12    1
    34    36    32   ar
    35    30    24   ar
    36     6     1   ar
    37    19    13   ar
    38    11     4   ar
    39    21    22    1
    40    21    23    1
@<TRIPOS>MOLECULE
*****
 36 40 0 0 0
SMALL
GASTEIGER

@<TRIPOS>ATOM
      1 C          58.6138   94.7733   -2.4259 C.ar    1  UNL1       -0.0005
      2 C          58.3349   94.6716   -0.9556 C.ar    1  UNL1       -0.0009
      3 C          59.4505   94.3688    0.0002 C.ar    1  UNL1        0.0170
      4 C          60.8451   94.1678   -0.5142 C.ar    1  UNL1        0.0625
      5 C          61.1241   94.2695   -1.9845 C.ar    1  UNL1        0.0158
      6 C          60.0084   94.5722   -2.9403 C.ar    1  UNL1       -0.0009
      7 C          62.5187   94.0684   -2.4990 C.ar    1  UNL1        0.0061
      8 C          63.6343   93.7656   -1.5431 C.ar    1  UNL1        0.0608
      9 C          63.3553   93.6639   -0.0728 C.ar    1  UNL1        0.2610
     10 O          64.4710   93.3612    0.8831 O.2     1  UNL1       -0.2670
     11 N          61.9607   93.8650    0.4417 N.ar    1  UNL1       -0.2935
     12 C          61.6818   93.7633    1.9120 C.3     1  UNL1        0.1335
     13 C          62.7976   94.1701   -3.9692 C.ar    1  UNL1        0.0010
     14 C          63.3221   92.9803   -4.7172 C.ar    1  UNL1        0.0001
     15 C          63.6010   93.0820   -6.1876 C.ar    1  UNL1        0.0009
     16 C          63.3556   94.3735   -6.9099 C.ar    1  UNL1        0.0114
     17 C          62.8312   95.5633   -6.1620 C.ar    1  UNL1        0.0577
     18 CL         62.5857   96.8548   -6.8844 Cl      1  UNL1       -0.0822
     19 C          62.5522   95.4616   -4.6917 C.ar    1  UNL1        0.0114
     20 C          57.4982   95.0761   -3.3818 C.3     1  UNL1        0.1128
     21 N          58.2006   96.3325   -3.8037 N.3     1  UNL1       -0.3125
     22 H          57.6445   96.8114   -4.5122 H       1  UNL1        0.1197
     23 H          59.1147   96.0975   -4.1905 H       1  UNL1        0.1197
     24 C          56.3826   95.3788   -4.3377 C.ar    1  UNL1       -0.0006
     25 C          56.6414   95.3837   -5.8152 C.ar    1  UNL1       -0.0015
     26 C          55.5258   95.6864   -6.7711 C.ar    1  UNL1        0.0111
     27 C          54.1513   95.9843   -6.2495 C.ar    1  UNL1        0.0577
     28 CL         53.0357   96.2870   -7.2054 Cl      1  UNL1       -0.0822
     29 C          53.8924   95.9794   -4.7720 C.ar    1  UNL1        0.0111
     30 C          55.0081   95.6767   -3.8161 C.ar    1  UNL1       -0.0015
     31 C          57.7639   92.1563   -4.8149 C.3     1  UNL1        0.1318
     32 N          56.9179   92.4775   -3.6187 N.ar    1  UNL1       -0.3088
     33 C          56.0455   91.5131   -2.8711 C.ar    1  UNL1        0.1784
     34 N          55.3842   92.2592   -1.7503 N.ar    1  UNL1       -0.2226
     35 C          55.8479   93.6847   -1.8052 C.ar    1  UNL1        0.1152
     36 C          56.7958   93.8197   -2.9599 C.ar    1  UNL1        0.0780
@<TRIPOS>BOND
     1    31    32    1
     2    32    33   ar
     3    33    34   ar
     4    34    35   ar
     5    35    36   ar
     6    36    20    1
     7    20    21    1
     8    20    24    1
     9    24    25   ar
    10    25    26   ar
    11    26    27   ar
    12    27    28    1
    13    27    29   ar
    14    29    30   ar
    15    20     1    1
    16     1     2   ar
    17     2     3   ar
    18     3     4   ar
    19     4     5   ar
    20     5     6   ar
    21     5     7   ar
    22     7    13    1
    23    13    14   ar
    24    14    15   ar
    25    15    16   ar
    26    16    17   ar
    27    17    18    1
    28    17    19   ar
    29     7     8   ar
    30     8     9   ar
    31     9    10    2
    32     9    11   ar
    33    11    12    1
    34    36    32   ar
    35    30    24   ar
    36     6     1   ar
    37    19    13   ar
    38    11     4   ar
    39    21    22    1
    40    21    23    1
@<TRIPOS>MOLECULE
*****
 36 40 0 0 0
SMALL
GASTEIGER

@<TRIPOS>ATOM
      1 C          63.3549   85.6144   13.6567 C.ar    1  UNL1       -0.0005
      2 C          64.2138   86.2545   14.7067 C.ar    1  UNL1       -0.0009
      3 C          64.5376   87.7167   14.6219 C.ar    1  UNL1        0.0170
      4 C          64.0025   88.5387   13.4870 C.ar    1  UNL1        0.0625
      5 C          63.1436   87.8986   12.4370 C.ar    1  UNL1        0.0158
      6 C          62.8199   86.4365   12.5218 C.ar    1  UNL1       -0.0009
      7 C          62.6086   88.7207   11.3021 C.ar    1  UNL1        0.0061
      8 C          62.9324   90.1828   11.2173 C.ar    1  UNL1        0.0608
      9 C          63.7913   90.8230   12.2673 C.ar    1  UNL1        0.2610
     10 O          64.1150   92.2851   12.1825 O.2     1  UNL1       -0.2670
     11 N          64.3263   90.0009   13.4022 N.ar    1  UNL1       -0.2935
     12 C          65.1852   90.6410   14.4522 C.3     1  UNL1        0.1335
     13 C          61.7497   88.0806   10.2521 C.ar    1  UNL1        0.0010
     14 C          60.3021   88.4559   10.1360 C.ar    1  UNL1        0.0001
     15 C          59.4432   87.8157    9.0859 C.ar    1  UNL1        0.0009
     16 C          60.0320   86.8004    8.1519 C.ar    1  UNL1        0.0114
     17 C          61.4796   86.4251    8.2680 C.ar    1  UNL1        0.0577
     18 CL         62.0684   85.4096    7.3340 Cl      1  UNL1       -0.0822
     19 C          62.3385   87.0652    9.3181 C.ar    1  UNL1        0.0114
     20 C          63.0311   84.1522   13.7415 C.3     1  UNL1        0.1128
     21 N          62.4430   84.3615   15.1054 N.3     1  UNL1       -0.3125
     22 H          62.1021   83.4715   15.4689 H       1  UNL1        0.1197
     23 H          61.6688   85.0227   15.0440 H       1  UNL1        0.1197
     24 C          62.7073   82.6901   13.8262 C.ar    1  UNL1       -0.0006
     25 C          63.7986   81.6707   13.6841 C.ar    1  UNL1       -0.0015
     26 C          63.4748   80.2086   13.7688 C.ar    1  UNL1        0.0111
     27 C          62.0598   79.7657   13.9957 C.ar    1  UNL1        0.0577
     28 CL         61.7360   78.3035   14.0805 Cl      1  UNL1       -0.0822
     29 C          60.9685   80.7849   14.1379 C.ar    1  UNL1        0.0111
     30 C          61.2923   82.2472   14.0531 C.ar    1  UNL1       -0.0015
     31 C          61.4515   84.4645   10.9031 C.3     1  UNL1        0.1318
     32 N          62.8931   84.0865   11.0728 N.ar    1  UNL1       -0.3088
     33 C          63.8617   83.7856    9.9677 C.ar    1  UNL1        0.1784
     34 N          65.1865   83.4561   10.5894 N.ar    1  UNL1       -0.2226
     35 C          65.0366   83.5533   12.0788 C.ar    1  UNL1        0.1152
     36 C          63.6192   83.9429   12.3776 C.ar    1  UNL1        0.0780
@<TRIPOS>BOND
     1    31    32    1
     2    32    33   ar
     3    33    34   ar
     4    34    35   ar
     5    35    36   ar
     6    36    20    1
     7    20    21    1
     8    20    24    1
     9    24    25   ar
    10    25    26   ar
    11    26    27   ar
    12    27    28    1
    13    27    29   ar
    14    29    30   ar
    15    20     1    1
    16     1     2   ar
    17     2     3   ar
    18     3     4   ar
    19     4     5   ar
    20     5     6   ar
    21     5     7   ar
    22     7    13    1
    23    13    14   ar
    24    14    15   ar
    25    15    16   ar
    26    16    17   ar
    27    17    18    1
    28    17    19   ar
    29     7     8   ar
    30     8     9   ar
    31     9    10    2
    32     9    11   ar
    33    11    12    1
    34    36    32   ar
    35    30    24   ar
    36     6     1   ar
    37    19    13   ar
    38    11     4   ar
    39    21    22    1
    40    21    23    1
