@<TRIPOS>MOLECULE
*****
 25 27 0 0 0
SMALL
GASTEIGER

@<TRIPOS>ATOM
      1 C          65.2650   91.9594   14.4207 C.ar    1  UNL1        0.1795
      2 C          65.5868   92.1895   15.8676 C.ar    1  UNL1        0.0407
      3 C          66.9441   92.6905   16.2636 C.ar    1  UNL1        0.0033
      4 C          67.9795   92.9614   15.2127 C.ar    1  UNL1        0.0033
      5 C          67.6577   92.7314   13.7658 C.ar    1  UNL1        0.0407
      6 C          66.3004   92.2304   13.3698 C.ar    1  UNL1        0.1795
      7 O          63.9077   91.4584   14.0247 O.3     1  UNL1       -0.4506
      8 C          63.0724   89.7025   12.3016 C.ar    1  UNL1        0.0473
      9 C          62.8922   88.2719   11.8881 C.ar    1  UNL1        0.0985
     10 N          63.3673   87.1667   12.7841 N.ar    1  UNL1       -0.2482
     11 C          64.0225   87.4920   14.0936 C.ar    1  UNL1        0.0624
     12 C          64.4975   86.3868   14.9896 C.3     1  UNL1        0.0522
     13 C          64.2026   88.9226   14.5071 C.ar    1  UNL1        0.0519
     14 C          63.7276   90.0278   13.6111 C.ar    1  UNL1        0.1454
     15 C          62.5973   90.8077   11.4057 C.3     1  UNL1        0.1003
     16 C          60.1228   90.3692   10.7466 C.3     1  UNL1        0.0861
     17 N          61.5622   90.5299   10.3563 N.3     1  UNL1       -0.2925
     18 H          61.6025   91.3023    9.6912 H       1  UNL1        0.1236
     19 O          65.9787   92.0004   11.9229 O.3     1  UNL1       -0.4504
     20 C          66.6194   92.8521   10.8675 C.ar    1  UNL1        0.1454
     21 C          66.1512   94.2612   10.6545 C.ar    1  UNL1        0.0375
     22 C          66.7919   95.1130    9.5991 C.ar    1  UNL1        0.0031
     23 C          67.9008   94.5557    8.7566 C.ar    1  UNL1        0.0002
     24 C          68.3689   93.1466    8.9695 C.ar    1  UNL1        0.0031
     25 C          67.7282   92.2948   10.0249 C.ar    1  UNL1        0.0375
@<TRIPOS>BOND
     1    16    17    1
     2    17    15    1
     3    15     8    1
     4     8     9   ar
     5     9    10   ar
     6    10    11   ar
     7    11    12    1
     8    11    13   ar
     9    13    14   ar
    10    14     7    1
    11     7     1    1
    12     1     2   ar
    13     2     3   ar
    14     3     4   ar
    15     4     5   ar
    16     5     6   ar
    17     6    19    1
    18    19    20    1
    19    20    21   ar
    20    21    22   ar
    21    22    23   ar
    22    23    24   ar
    23    24    25   ar
    24    14     8   ar
    25     6     1   ar
    26    25    20   ar
    27    17    18    1
@<TRIPOS>MOLECULE
*****
 25 27 0 0 0
SMALL
GASTEIGER

@<TRIPOS>ATOM
      1 C          63.1694   90.4780   12.5603 C.ar    1  UNL1        0.1795
      2 C          63.6748   91.0263   11.2587 C.ar    1  UNL1        0.0407
      3 C          64.8595   91.9462   11.2418 C.ar    1  UNL1        0.0033
      4 C          65.5388   92.3179   12.5265 C.ar    1  UNL1        0.0033
      5 C          65.0335   91.7696   13.8280 C.ar    1  UNL1        0.0407
      6 C          63.8488   90.8497   13.8450 C.ar    1  UNL1        0.1795
      7 O          61.9848   89.5581   12.5772 O.3     1  UNL1       -0.4506
      8 C          60.5007   89.2844   10.4623 C.ar    1  UNL1        0.0473
      9 C          60.1277   88.5192    9.2273 C.ar    1  UNL1        0.0985
     10 N          60.8657   87.2625    8.8721 N.ar    1  UNL1       -0.2482
     11 C          61.9767   86.7710    9.7520 C.ar    1  UNL1        0.0624
     12 C          62.7147   85.5143    9.3968 C.3     1  UNL1        0.0522
     13 C          62.3497   87.5362   10.9870 C.ar    1  UNL1        0.0519
     14 C          61.6117   88.7929   11.3421 C.ar    1  UNL1        0.1454
     15 C          59.7628   90.5411   10.8175 C.3     1  UNL1        0.1003
     16 C          58.4864   89.3012   12.7105 C.3     1  UNL1        0.0861
     17 N          58.8901   90.5792   12.0369 N.3     1  UNL1       -0.2925
     18 H          59.3831   91.1367   12.7344 H       1  UNL1        0.1236
     19 O          63.3435   90.3015   15.1465 O.3     1  UNL1       -0.4504
     20 C          63.5405   88.8516   15.4767 C.ar    1  UNL1        0.1454
     21 C          64.3320   87.9731   14.5538 C.ar    1  UNL1        0.0375
     22 C          64.5290   86.5232   14.8839 C.ar    1  UNL1        0.0031
     23 C          63.9346   85.9518   16.1369 C.ar    1  UNL1        0.0002
     24 C          63.1431   86.8303   17.0599 C.ar    1  UNL1        0.0031
     25 C          62.9461   88.2802   16.7298 C.ar    1  UNL1        0.0375
@<TRIPOS>BOND
     1    16    17    1
     2    17    15    1
     3    15     8    1
     4     8     9   ar
     5     9    10   ar
     6    10    11   ar
     7    11    12    1
     8    11    13   ar
     9    13    14   ar
    10    14     7    1
    11     7     1    1
    12     1     2   ar
    13     2     3   ar
    14     3     4   ar
    15     4     5   ar
    16     5     6   ar
    17     6    19    1
    18    19    20    1
    19    20    21   ar
    20    21    22   ar
    21    22    23   ar
    22    23    24   ar
    23    24    25   ar
    24    14     8   ar
    25     6     1   ar
    26    25    20   ar
    27    17    18    1
@<TRIPOS>MOLECULE
*****
 25 27 0 0 0
SMALL
GASTEIGER

@<TRIPOS>ATOM
      1 C          62.5227   85.6327   11.2443 C.ar    1  UNL1        0.1795
      2 C          63.0275   84.4404   10.4868 C.ar    1  UNL1        0.0407
      3 C          63.1005   84.4792    8.9891 C.ar    1  UNL1        0.0033
      4 C          62.6688   85.7103    8.2488 C.ar    1  UNL1        0.0033
      5 C          62.1640   86.9025    9.0062 C.ar    1  UNL1        0.0407
      6 C          62.0910   86.8637   10.5040 C.ar    1  UNL1        0.1795
      7 O          62.4497   85.5939   12.7419 O.3     1  UNL1       -0.4506
      8 C          63.9469   84.5210   14.5743 C.ar    1  UNL1        0.0473
      9 C          64.4226   83.3078   15.3172 C.ar    1  UNL1        0.0985
     10 N          63.8769   81.9543   14.9706 N.ar    1  UNL1       -0.2482
     11 C          62.8555   81.8139   13.8811 C.ar    1  UNL1        0.0624
     12 C          62.3098   80.4604   13.5345 C.3     1  UNL1        0.0522
     13 C          62.3798   83.0271   13.1383 C.ar    1  UNL1        0.0519
     14 C          62.9255   84.3806   13.4849 C.ar    1  UNL1        0.1454
     15 C          64.4926   85.8745   14.9210 C.3     1  UNL1        0.1003
     16 C          63.0315   86.4475   16.9914 C.3     1  UNL1        0.0861
     17 N          63.6478   86.8507   15.6847 N.3     1  UNL1       -0.2925
     18 H          64.2349   87.6630   15.8742 H       1  UNL1        0.1236
     19 O          61.5862   88.0560   11.2614 O.3     1  UNL1       -0.4504
     20 C          62.4839   89.2364   11.4868 C.ar    1  UNL1        0.1454
     21 C          62.6686   90.2562   10.4024 C.ar    1  UNL1        0.0375
     22 C          63.5663   91.4365   10.6279 C.ar    1  UNL1        0.0031
     23 C          64.2793   91.5972   11.9378 C.ar    1  UNL1        0.0002
     24 C          64.0946   90.5774   13.0223 C.ar    1  UNL1        0.0031
     25 C          63.1969   89.3970   12.7968 C.ar    1  UNL1        0.0375
@<TRIPOS>BOND
     1    16    17    1
     2    17    15    1
     3    15     8    1
     4     8     9   ar
     5     9    10   ar
     6    10    11   ar
     7    11    12    1
     8    11    13   ar
     9    13    14   ar
    10    14     7    1
    11     7     1    1
    12     1     2   ar
    13     2     3   ar
    14     3     4   ar
    15     4     5   ar
    16     5     6   ar
    17     6    19    1
    18    19    20    1
    19    20    21   ar
    20    21    22   ar
    21    22    23   ar
    22    23    24   ar
    23    24    25   ar
    24    14     8   ar
    25     6     1   ar
    26    25    20   ar
    27    17    18    1
@<TRIPOS>MOLECULE
*****
 25 27 0 0 0
SMALL
GASTEIGER

@<TRIPOS>ATOM
      1 C          63.5297   90.8394   12.0173 C.ar    1  UNL1        0.1795
      2 C          62.6697   91.0387   10.8046 C.ar    1  UNL1        0.0407
      3 C          61.8588   89.8982   10.2645 C.ar    1  UNL1        0.0033
      4 C          61.9078   88.5584   10.9372 C.ar    1  UNL1        0.0033
      5 C          62.7678   88.3591   12.1499 C.ar    1  UNL1        0.0407
      6 C          63.5787   89.4996   12.6900 C.ar    1  UNL1        0.1795
      7 O          64.3406   91.9799   12.5574 O.3     1  UNL1       -0.4506
      8 C          66.7904   91.8696   13.4156 C.ar    1  UNL1        0.0473
      9 C          68.2648   91.9345   13.1477 C.ar    1  UNL1        0.0985
     10 N          68.7640   92.1745   11.7537 N.ar    1  UNL1       -0.2482
     11 C          67.7887   92.3496   10.6276 C.ar    1  UNL1        0.0624
     12 C          68.2879   92.5896    9.2336 C.3     1  UNL1        0.0522
     13 C          66.3143   92.2847   10.8955 C.ar    1  UNL1        0.0519
     14 C          65.8151   92.0447   12.2895 C.ar    1  UNL1        0.1454
     15 C          66.2912   91.6296   14.8096 C.3     1  UNL1        0.1003
     16 C          64.7145   92.2836   16.7682 C.3     1  UNL1        0.0861
     17 N          65.3457   92.6048   15.4460 N.3     1  UNL1       -0.2925
     18 H          65.8609   93.4764   15.5696 H       1  UNL1        0.1236
     19 O          64.4387   89.3002   13.9027 O.3     1  UNL1       -0.4504
     20 C          64.0237   88.3252   14.9644 C.ar    1  UNL1        0.1454
     21 C          64.3265   86.8652   14.8016 C.ar    1  UNL1        0.0375
     22 C          63.9115   85.8902   15.8633 C.ar    1  UNL1        0.0031
     23 C          63.1937   86.3753   17.0878 C.ar    1  UNL1        0.0002
     24 C          62.8909   87.8354   17.2507 C.ar    1  UNL1        0.0031
     25 C          63.3059   88.8104   16.1890 C.ar    1  UNL1        0.0375
@<TRIPOS>BOND
     1    16    17    1
     2    17    15    1
     3    15     8    1
     4     8     9   ar
     5     9    10   ar
     6    10    11   ar
     7    11    12    1
     8    11    13   ar
     9    13    14   ar
    10    14     7    1
    11     7     1    1
    12     1     2   ar
    13     2     3   ar
    14     3     4   ar
    15     4     5   ar
    16     5     6   ar
    17     6    19    1
    18    19    20    1
    19    20    21   ar
    20    21    22   ar
    21    22    23   ar
    22    23    24   ar
    23    24    25   ar
    24    14     8   ar
    25     6     1   ar
    26    25    20   ar
    27    17    18    1
@<TRIPOS>MOLECULE
*****
 25 27 0 0 0
SMALL
GASTEIGER

@<TRIPOS>ATOM
      1 C          63.4890   90.7762   12.3150 C.ar    1  UNL1        0.1795
      2 C          62.7485   90.9327   11.0198 C.ar    1  UNL1        0.0407
      3 C          62.1879   89.7269   10.3260 C.ar    1  UNL1        0.0033
      4 C          62.3677   88.3644   10.9271 C.ar    1  UNL1        0.0033
      5 C          63.1081   88.2079   12.2222 C.ar    1  UNL1        0.0407
      6 C          63.6688   89.4138   12.9162 C.ar    1  UNL1        0.1795
      7 O          64.0496   91.9821   13.0089 O.3     1  UNL1       -0.4506
      8 C          66.4470   92.2834   12.0540 C.ar    1  UNL1        0.0473
      9 C          67.9262   92.4035   12.2714 C.ar    1  UNL1        0.0985
     10 N          68.4874   92.3425   13.6612 N.ar    1  UNL1       -0.2482
     11 C          67.5694   92.1614   14.8334 C.ar    1  UNL1        0.0624
     12 C          68.1305   92.1004   16.2232 C.3     1  UNL1        0.0522
     13 C          66.0901   92.0413   14.6160 C.ar    1  UNL1        0.0519
     14 C          65.5289   92.1022   13.2263 C.ar    1  UNL1        0.1454
     15 C          65.8858   92.3443   10.6642 C.3     1  UNL1        0.1003
     16 C          65.7830   94.9388   10.7543 C.3     1  UNL1        0.0861
     17 N          65.7604   93.6645    9.9633 N.3     1  UNL1       -0.2925
     18 H          66.5304   93.7182    9.2965 H       1  UNL1        0.1236
     19 O          64.4092   89.2572   14.2112 O.3     1  UNL1       -0.4504
     20 C          63.9803   88.2129   15.1989 C.ar    1  UNL1        0.1454
     21 C          64.3079   86.7697   14.9542 C.ar    1  UNL1        0.0375
     22 C          63.8790   85.7254   15.9419 C.ar    1  UNL1        0.0031
     23 C          63.1225   86.1242   17.1741 C.ar    1  UNL1        0.0002
     24 C          62.7948   87.5675   17.4188 C.ar    1  UNL1        0.0031
     25 C          63.2237   88.6118   16.4312 C.ar    1  UNL1        0.0375
@<TRIPOS>BOND
     1    16    17    1
     2    17    15    1
     3    15     8    1
     4     8     9   ar
     5     9    10   ar
     6    10    11   ar
     7    11    12    1
     8    11    13   ar
     9    13    14   ar
    10    14     7    1
    11     7     1    1
    12     1     2   ar
    13     2     3   ar
    14     3     4   ar
    15     4     5   ar
    16     5     6   ar
    17     6    19    1
    18    19    20    1
    19    20    21   ar
    20    21    22   ar
    21    22    23   ar
    22    23    24   ar
    23    24    25   ar
    24    14     8   ar
    25     6     1   ar
    26    25    20   ar
    27    17    18    1
@<TRIPOS>MOLECULE
*****
 25 27 0 0 0
SMALL
GASTEIGER

@<TRIPOS>ATOM
      1 C          62.5406   84.6852   11.2969 C.ar    1  UNL1        0.1795
      2 C          63.0841   84.6930    9.8988 C.ar    1  UNL1        0.0407
      3 C          64.0079   83.6010    9.4471 C.ar    1  UNL1        0.0033
      4 C          64.3882   82.5011   10.3935 C.ar    1  UNL1        0.0033
      5 C          63.8448   82.4933   11.7915 C.ar    1  UNL1        0.0407
      6 C          62.9209   83.5853   12.2432 C.ar    1  UNL1        0.1795
      7 O          61.6169   85.7773   11.7486 O.3     1  UNL1       -0.4506
      8 C          62.0651   88.2473   11.0792 C.ar    1  UNL1        0.0473
      9 C          61.7954   89.4199   10.1834 C.ar    1  UNL1        0.0985
     10 N          60.8079   89.2949    9.0613 N.ar    1  UNL1       -0.2482
     11 C          60.0901   87.9975    8.8349 C.ar    1  UNL1        0.0624
     12 C          59.1025   87.8726    7.7127 C.3     1  UNL1        0.0522
     13 C          60.3597   86.8250    9.7306 C.ar    1  UNL1        0.0519
     14 C          61.3472   86.9499   10.8528 C.ar    1  UNL1        0.1454
     15 C          63.0526   88.3722   12.2013 C.3     1  UNL1        0.1003
     16 C          63.7226   90.7553   12.9901 C.3     1  UNL1        0.0861
     17 N          62.9302   89.4968   13.1863 N.3     1  UNL1       -0.2925
     18 H          61.9470   89.7677   13.2034 H       1  UNL1        0.1236
     19 O          62.3775   83.5775   13.6413 O.3     1  UNL1       -0.4504
     20 C          62.8189   84.6218   14.6234 C.ar    1  UNL1        0.1454
     21 C          63.9402   85.5546   14.2732 C.ar    1  UNL1        0.0375
     22 C          64.3815   86.5989   15.2553 C.ar    1  UNL1        0.0031
     23 C          63.7017   86.7105   16.5877 C.ar    1  UNL1        0.0002
     24 C          62.5803   85.7777   16.9380 C.ar    1  UNL1        0.0031
     25 C          62.1389   84.7334   15.9558 C.ar    1  UNL1        0.0375
@<TRIPOS>BOND
     1    16    17    1
     2    17    15    1
     3    15     8    1
     4     8     9   ar
     5     9    10   ar
     6    10    11   ar
     7    11    12    1
     8    11    13   ar
     9    13    14   ar
    10    14     7    1
    11     7     1    1
    12     1     2   ar
    13     2     3   ar
    14     3     4   ar
    15     4     5   ar
    16     5     6   ar
    17     6    19    1
    18    19    20    1
    19    20    21   ar
    20    21    22   ar
    21    22    23   ar
    22    23    24   ar
    23    24    25   ar
    24    14     8   ar
    25     6     1   ar
    26    25    20   ar
    27    17    18    1
@<TRIPOS>MOLECULE
*****
 25 27 0 0 0
SMALL
GASTEIGER

@<TRIPOS>ATOM
      1 C          64.2672   91.6944   11.7692 C.ar    1  UNL1        0.1795
      2 C          63.7755   91.7480   10.3531 C.ar    1  UNL1        0.0407
      3 C          62.6745   90.8324    9.9063 C.ar    1  UNL1        0.0033
      4 C          62.0652   89.8633   10.8757 C.ar    1  UNL1        0.0033
      5 C          62.5569   89.8098   12.2918 C.ar    1  UNL1        0.0407
      6 C          63.6579   90.7254   12.7386 C.ar    1  UNL1        0.1795
      7 O          65.3682   92.6100   12.2160 O.3     1  UNL1       -0.4506
      8 C          67.5233   92.8576   10.7862 C.ar    1  UNL1        0.0473
      9 C          68.3291   93.6127    9.7711 C.ar    1  UNL1        0.0985
     10 N          67.7856   94.8752    9.1705 N.ar    1  UNL1       -0.2482
     11 C          66.4364   95.3827    9.5851 C.ar    1  UNL1        0.0624
     12 C          65.8929   96.6452    8.9845 C.3     1  UNL1        0.0522
     13 C          65.6306   94.6276   10.6002 C.ar    1  UNL1        0.0519
     14 C          66.1740   93.3651   11.2008 C.ar    1  UNL1        0.1454
     15 C          68.0668   91.5951   11.3868 C.3     1  UNL1        0.1003
     16 C          68.1063   91.9319   13.9626 C.3     1  UNL1        0.0861
     17 N          68.8273   91.6459   12.6787 N.3     1  UNL1       -0.2925
     18 H          69.2789   90.7382   12.7904 H       1  UNL1        0.1236
     19 O          64.1496   90.6718   14.1547 O.3     1  UNL1       -0.4504
     20 C          63.9263   89.4394   14.9800 C.ar    1  UNL1        0.1454
     21 C          64.4153   88.1091   14.4889 C.ar    1  UNL1        0.0375
     22 C          64.1921   86.8766   15.3143 C.ar    1  UNL1        0.0031
     23 C          63.4798   86.9744   16.6307 C.ar    1  UNL1        0.0002
     24 C          62.9908   88.3048   17.1219 C.ar    1  UNL1        0.0031
     25 C          63.2141   89.5372   16.2965 C.ar    1  UNL1        0.0375
@<TRIPOS>BOND
     1    16    17    1
     2    17    15    1
     3    15     8    1
     4     8     9   ar
     5     9    10   ar
     6    10    11   ar
     7    11    12    1
     8    11    13   ar
     9    13    14   ar
    10    14     7    1
    11     7     1    1
    12     1     2   ar
    13     2     3   ar
    14     3     4   ar
    15     4     5   ar
    16     5     6   ar
    17     6    19    1
    18    19    20    1
    19    20    21   ar
    20    21    22   ar
    21    22    23   ar
    22    23    24   ar
    23    24    25   ar
    24    14     8   ar
    25     6     1   ar
    26    25    20   ar
    27    17    18    1
@<TRIPOS>MOLECULE
*****
 25 27 0 0 0
SMALL
GASTEIGER

@<TRIPOS>ATOM
      1 C          62.3544   85.0391   11.0676 C.ar    1  UNL1        0.1795
      2 C          62.8588   85.1665    9.6607 C.ar    1  UNL1        0.0407
      3 C          63.7741   84.1217    9.0946 C.ar    1  UNL1        0.0033
      4 C          64.1850   82.9494    9.9353 C.ar    1  UNL1        0.0033
      5 C          63.6806   82.8219   11.3422 C.ar    1  UNL1        0.0407
      6 C          62.7653   83.8668   11.9084 C.ar    1  UNL1        0.1795
      7 O          61.4391   86.0840   11.6337 O.3     1  UNL1       -0.4506
      8 C          60.7334   88.0826   10.1311 C.ar    1  UNL1        0.0473
      9 C          60.8877   89.5169    9.7204 C.ar    1  UNL1        0.0985
     10 N          61.9020   90.3872   10.4014 N.ar    1  UNL1       -0.2482
     11 C          62.7621   89.8230   11.4932 C.ar    1  UNL1        0.0624
     12 C          63.7765   90.6932   12.1742 C.3     1  UNL1        0.0522
     13 C          62.6078   88.3887   11.9039 C.ar    1  UNL1        0.0519
     14 C          61.5934   87.5184   11.2229 C.ar    1  UNL1        0.1454
     15 C          59.7190   87.2124    9.4501 C.3     1  UNL1        0.1003
     16 C          60.1488   85.7511    7.3454 C.3     1  UNL1        0.0861
     17 N          59.7433   87.0588    7.9583 N.3     1  UNL1       -0.2925
     18 H          58.8000   87.2596    7.6262 H       1  UNL1        0.1236
     19 O          62.2609   83.7394   13.3152 O.3     1  UNL1       -0.4504
     20 C          62.7677   84.6659   14.3805 C.ar    1  UNL1        0.1454
     21 C          62.1425   84.6545   15.7439 C.ar    1  UNL1        0.0375
     22 C          62.6492   85.5810   16.8092 C.ar    1  UNL1        0.0031
     23 C          63.7812   86.5189   16.5110 C.ar    1  UNL1        0.0002
     24 C          64.4065   86.5304   15.1475 C.ar    1  UNL1        0.0031
     25 C          63.8997   85.6038   14.0823 C.ar    1  UNL1        0.0375
@<TRIPOS>BOND
     1    16    17    1
     2    17    15    1
     3    15     8    1
     4     8     9   ar
     5     9    10   ar
     6    10    11   ar
     7    11    12    1
     8    11    13   ar
     9    13    14   ar
    10    14     7    1
    11     7     1    1
    12     1     2   ar
    13     2     3   ar
    14     3     4   ar
    15     4     5   ar
    16     5     6   ar
    17     6    19    1
    18    19    20    1
    19    20    21   ar
    20    21    22   ar
    21    22    23   ar
    22    23    24   ar
    23    24    25   ar
    24    14     8   ar
    25     6     1   ar
    26    25    20   ar
    27    17    18    1
@<TRIPOS>MOLECULE
*****
 25 27 0 0 0
SMALL
GASTEIGER

@<TRIPOS>ATOM
      1 C          62.1442   86.0506   10.4080 C.ar    1  UNL1        0.1795
      2 C          62.0022   86.4169    8.9603 C.ar    1  UNL1        0.0407
      3 C          62.6036   85.5400    7.9023 C.ar    1  UNL1        0.0033
      4 C          63.3470   84.2968    8.2919 C.ar    1  UNL1        0.0033
      5 C          63.4889   83.9304    9.7395 C.ar    1  UNL1        0.0407
      6 C          62.8875   84.8073   10.7976 C.ar    1  UNL1        0.1795
      7 O          61.5428   86.9274   11.4660 O.3     1  UNL1       -0.4506
      8 C          61.3671   89.4467   10.8556 C.ar    1  UNL1        0.0473
      9 C          61.8443   90.8593   11.0194 C.ar    1  UNL1        0.0985
     10 N          62.9743   91.1653   11.9572 N.ar    1  UNL1       -0.2482
     11 C          63.6271   90.0587   12.7313 C.ar    1  UNL1        0.0624
     12 C          64.7571   90.3647   13.6691 C.3     1  UNL1        0.0522
     13 C          63.1499   88.6461   12.5675 C.ar    1  UNL1        0.0519
     14 C          62.0199   88.3401   11.6297 C.ar    1  UNL1        0.1454
     15 C          60.2371   89.1407    9.9178 C.3     1  UNL1        0.1003
     16 C          59.5012   88.9171    7.4362 C.3     1  UNL1        0.0861
     17 N          60.2877   89.6253    8.4992 N.3     1  UNL1       -0.2925
     18 H          59.9668   90.5935    8.5071 H       1  UNL1        0.1236
     19 O          63.0294   84.4410   12.2452 O.3     1  UNL1       -0.4504
     20 C          62.7216   83.0448   12.6992 C.ar    1  UNL1        0.1454
     21 C          62.0936   82.8140   14.0416 C.ar    1  UNL1        0.0375
     22 C          61.7858   81.4179   14.4956 C.ar    1  UNL1        0.0031
     23 C          62.1061   80.2526   13.6072 C.ar    1  UNL1        0.0002
     24 C          62.7342   80.4834   12.2647 C.ar    1  UNL1        0.0031
     25 C          63.0420   81.8795   11.8107 C.ar    1  UNL1        0.0375
@<TRIPOS>BOND
     1    16    17    1
     2    17    15    1
     3    15     8    1
     4     8     9   ar
     5     9    10   ar
     6    10    11   ar
     7    11    12    1
     8    11    13   ar
     9    13    14   ar
    10    14     7    1
    11     7     1    1
    12     1     2   ar
    13     2     3   ar
    14     3     4   ar
    15     4     5   ar
    16     5     6   ar
    17     6    19    1
    18    19    20    1
    19    20    21   ar
    20    21    22   ar
    21    22    23   ar
    22    23    24   ar
    23    24    25   ar
    24    14     8   ar
    25     6     1   ar
    26    25    20   ar
    27    17    18    1
