@<TRIPOS>MOLECULE
*****
 45 51 0 0 0
SMALL
GASTEIGER

@<TRIPOS>ATOM
      1 C          59.4407   88.7799    7.5866 C.3     1  UNL1        0.1544
      2 O          59.6011   88.8078   10.5821 O.2     1  UNL1       -0.2526
      3 C          60.6752   89.4655    9.7674 C.2     1  UNL1        0.3043
      4 N          60.5949   89.4515    8.2697 N.am    1  UNL1       -0.2822
      5 N          61.8294   90.1372   10.4505 N.am    1  UNL1       -0.2641
      6 C          61.9095   90.1511   11.9483 C.3     1  UNL1        0.0967
      7 C          63.0637   90.8228   12.6314 C.3     1  UNL1        0.0418
      8 C          64.1378   91.4805   11.8167 C.3     1  UNL1        0.0848
      9 C          64.0577   91.4666   10.3189 C.3     1  UNL1        0.0418
     10 C          62.9035   90.7949    9.6358 C.3     1  UNL1        0.0967
     11 H          61.2999   89.8832    7.7349 H       1  UNL1        0.1514
     12 N          65.2921   92.1522   12.4997 N.am    1  UNL1       -0.2422
     13 C          66.4216   92.8696   11.8218 C.2     1  UNL1        0.3310
     14 O          66.5952   93.0413   10.3419 O.2     1  UNL1       -0.2501
     15 N          67.3470   93.3852   12.8839 N.am    1  UNL1       -0.1647
     16 C          66.7894   92.9863   14.2181 C.2     1  UNL1        0.0706
     17 C          67.2741   93.2186   15.6185 C.3     1  UNL1        0.0705
     18 C          66.4888   92.6889   16.7815 C.2     1  UNL1       -0.0199
     19 C          65.2188   91.9269   16.5441 C.2     1  UNL1       -0.0029
     20 C          64.7341   91.6946   15.1437 C.2     1  UNL1        0.0156
     21 C          65.5194   92.2243   13.9807 C.2     1  UNL1        0.0668
     22 C          58.5359   89.5718    6.6898 C.2     1  UNL1        0.2439
     23 O          57.0475   89.4523    6.8317 O.2     1  UNL1       -0.2731
     24 N          59.1196   90.4831    5.6512 N.am    1  UNL1       -0.2781
     25 C          58.2148   91.2750    4.7544 C.3     1  UNL1        0.0948
     26 C          58.7985   92.1864    3.7158 C.3     1  UNL1        0.0375
     27 C          60.2870   92.3058    3.5739 C.3     1  UNL1        0.0609
     28 C          61.1918   91.5139    4.4707 C.3     1  UNL1        0.0375
     29 C          60.6081   90.6025    5.5093 C.3     1  UNL1        0.0948
     30 N          60.8706   93.2171    2.5353 N.3     1  UNL1       -0.2738
     31 C          62.1197   92.8202    1.8058 C.3     1  UNL1        0.0720
     32 C          62.7034   93.7315    0.7671 C.3     1  UNL1        0.0174
     33 C          62.0381   95.0398    0.4579 C.3     1  UNL1        0.0029
     34 C          60.7890   95.4367    1.1875 C.3     1  UNL1        0.0174
     35 C          60.2053   94.5254    2.2261 C.3     1  UNL1        0.0720
     36 C          59.1913   87.3162    7.8003 C.3     1  UNL1        0.0570
     37 C          60.3368   86.3482    7.7720 C.2     1  UNL1        0.0002
     38 C          60.8638   85.6411    6.5586 C.2     1  UNL1        0.0943
     39 N          62.0091   84.7732    6.9888 N.2     1  UNL1       -0.2482
     40 C          62.1899   84.9439    8.4681 C.2     1  UNL1        0.0631
     41 C          63.1621   84.3388    9.4368 C.3     1  UNL1        0.0717
     42 C          63.1008   84.7070   10.8896 C.2     1  UNL1       -0.0198
     43 C          62.0672   85.6804   11.3736 C.2     1  UNL1       -0.0042
     44 C          61.0950   86.2855   10.4049 C.2     1  UNL1        0.0006
     45 C          61.1563   85.9173    8.9521 C.2     1  UNL1        0.0115
@<TRIPOS>BOND
     1     2     3    2
     2     3     4   am
     3     4     1    1
     4     1    36    1
     5    36    37    1
     6    37    38    2
     7    38    39    1
     8    39    40    2
     9    40    41    1
    10    41    42    1
    11    42    43    2
    12    43    44    1
    13    44    45    2
    14     1    22    1
    15    22    23    2
    16    22    24   am
    17    24    25    1
    18    25    26    1
    19    26    27    1
    20    27    30    1
    21    30    31    1
    22    31    32    1
    23    32    33    1
    24    33    34    1
    25    34    35    1
    26    27    28    1
    27    28    29    1
    28     3     5   am
    29     5     6    1
    30     6     7    1
    31     7     8    1
    32     8    12    1
    33    12    13   am
    34    13    14    2
    35    13    15    1
    36    15    16    2
    37    16    17    1
    38    17    18    1
    39    18    19    2
    40    19    20    1
    41    20    21    2
    42     8     9    1
    43     9    10    1
    44    45    37    1
    45    29    24    1
    46    10     5    1
    47    45    40    1
    48    35    30    1
    49    21    12    1
    50    21    16    1
    51     4    11    1
@<TRIPOS>MOLECULE
*****
 45 51 0 0 0
SMALL
GASTEIGER

@<TRIPOS>ATOM
      1 C          60.1619   88.2252    8.3708 C.3     1  UNL1        0.1544
      2 O          57.8649   89.3789    6.8240 O.2     1  UNL1       -0.2526
      3 C          59.2684   89.8081    6.5144 C.2     1  UNL1        0.3043
      4 N          60.4169   89.2312    7.2877 N.am    1  UNL1       -0.2822
      5 N          59.5234   90.8141    5.4313 N.am    1  UNL1       -0.2641
      6 C          58.3748   91.3909    4.6580 C.3     1  UNL1        0.0967
      7 C          58.6298   92.3969    3.5750 C.3     1  UNL1        0.0418
      8 C          60.0333   92.8261    3.2653 C.3     1  UNL1        0.0848
      9 C          61.1819   92.2493    4.0386 C.3     1  UNL1        0.0418
     10 C          60.9269   91.2433    5.1217 C.3     1  UNL1        0.0967
     11 H          61.3381   89.5129    7.0845 H       1  UNL1        0.1514
     12 N          60.2883   93.8321    2.1823 N.am    1  UNL1       -0.2422
     13 C          60.1715   95.3214    2.3170 C.2     1  UNL1        0.3310
     14 O          59.7791   96.0663    3.5585 O.2     1  UNL1       -0.2501
     15 N          60.5159   95.9351    0.9923 N.am    1  UNL1       -0.1647
     16 C          60.8456   94.8250    0.0388 C.2     1  UNL1        0.0706
     17 C          61.2557   94.8298   -1.4040 C.3     1  UNL1        0.0705
     18 C          61.5251   93.5349   -2.1115 C.2     1  UNL1       -0.0199
     19 C          61.3845   92.2352   -1.3761 C.2     1  UNL1       -0.0029
     20 C          60.9744   92.2304    0.0668 C.2     1  UNL1        0.0156
     21 C          60.7049   93.5253    0.7742 C.2     1  UNL1        0.0668
     22 C          60.0448   88.6728    9.7977 C.2     1  UNL1        0.2439
     23 O          58.7986   88.3745   10.5773 O.2     1  UNL1       -0.2731
     24 N          61.1740   89.4185   10.4449 N.am    1  UNL1       -0.2781
     25 C          61.0569   89.8660   11.8718 C.3     1  UNL1        0.0948
     26 C          62.1861   90.6118   12.5189 C.3     1  UNL1        0.0375
     27 C          63.4323   90.9100   11.7392 C.3     1  UNL1        0.0609
     28 C          63.5493   90.4625   10.3123 C.3     1  UNL1        0.0375
     29 C          62.4202   89.7168    9.6651 C.3     1  UNL1        0.0948
     30 N          64.5614   91.6558   12.3864 N.3     1  UNL1       -0.2738
     31 C          65.2357   92.7783   11.6548 C.3     1  UNL1        0.0720
     32 C          66.3648   93.5241   12.3020 C.3     1  UNL1        0.0174
     33 C          66.8198   93.1474   13.6807 C.3     1  UNL1        0.0029
     34 C          66.1455   92.0248   14.4123 C.3     1  UNL1        0.0174
     35 C          65.0164   91.2790   13.7652 C.3     1  UNL1        0.0720
     36 C          60.0240   86.7716    8.0269 C.3     1  UNL1        0.0570
     37 C          61.2038   85.8547    8.1581 C.2     1  UNL1        0.0002
     38 C          61.9452   85.2047    7.0277 C.2     1  UNL1        0.0943
     39 N          63.0490   84.3750    7.6137 N.2     1  UNL1       -0.2482
     40 C          62.9897   84.5123    9.1063 C.2     1  UNL1        0.0631
     41 C          63.8268   83.9227   10.2024 C.3     1  UNL1        0.0717
     42 C          63.5235   84.2477   11.6350 C.2     1  UNL1       -0.0198
     43 C          62.3831   85.1622   11.9715 C.2     1  UNL1       -0.0042
     44 C          61.5460   85.7517   10.8753 C.2     1  UNL1        0.0006
     45 C          61.8493   85.4268    9.4427 C.2     1  UNL1        0.0115
@<TRIPOS>BOND
     1     2     3    2
     2     3     4   am
     3     4     1    1
     4     1    36    1
     5    36    37    1
     6    37    38    2
     7    38    39    1
     8    39    40    2
     9    40    41    1
    10    41    42    1
    11    42    43    2
    12    43    44    1
    13    44    45    2
    14     1    22    1
    15    22    23    2
    16    22    24   am
    17    24    25    1
    18    25    26    1
    19    26    27    1
    20    27    30    1
    21    30    31    1
    22    31    32    1
    23    32    33    1
    24    33    34    1
    25    34    35    1
    26    27    28    1
    27    28    29    1
    28     3     5   am
    29     5     6    1
    30     6     7    1
    31     7     8    1
    32     8    12    1
    33    12    13   am
    34    13    14    2
    35    13    15    1
    36    15    16    2
    37    16    17    1
    38    17    18    1
    39    18    19    2
    40    19    20    1
    41    20    21    2
    42     8     9    1
    43     9    10    1
    44    45    37    1
    45    29    24    1
    46    10     5    1
    47    45    40    1
    48    35    30    1
    49    21    12    1
    50    21    16    1
    51     4    11    1
@<TRIPOS>MOLECULE
*****
 45 51 0 0 0
SMALL
GASTEIGER

@<TRIPOS>ATOM
      1 C          60.2054   88.3124    8.3159 C.3     1  UNL1        0.1544
      2 O          58.0674   89.7867    6.8142 O.2     1  UNL1       -0.2526
      3 C          59.5058   89.9437    6.4187 C.2     1  UNL1        0.3043
      4 N          60.5748   89.2066    7.1696 N.am    1  UNL1       -0.2822
      5 N          59.8751   90.8378    5.2724 N.am    1  UNL1       -0.2641
      6 C          58.8060   91.5749    4.5216 C.3     1  UNL1        0.0967
      7 C          59.1754   92.4691    3.3752 C.3     1  UNL1        0.0418
      8 C          60.6137   92.6261    2.9797 C.3     1  UNL1        0.0848
      9 C          61.6828   91.8890    3.7305 C.3     1  UNL1        0.0418
     10 C          61.3135   90.9949    4.8769 C.3     1  UNL1        0.0967
     11 H          61.5188   89.3096    6.9100 H       1  UNL1        0.1514
     12 N          60.9831   93.5203    1.8334 N.am    1  UNL1       -0.2422
     13 C          60.0722   93.9510    0.7222 C.2     1  UNL1        0.3310
     14 O          58.6320   93.5632    0.5622 O.2     1  UNL1       -0.2501
     15 N          60.8543   94.8376   -0.2010 N.am    1  UNL1       -0.1647
     16 C          62.2486   94.9548    0.3397 C.2     1  UNL1        0.0706
     17 C          63.4560   95.6978   -0.1504 C.3     1  UNL1        0.0705
     18 C          64.7430   95.6265    0.6167 C.2     1  UNL1       -0.0199
     19 C          64.8226   94.8124    1.8740 C.2     1  UNL1       -0.0029
     20 C          63.6152   94.0695    2.3641 C.2     1  UNL1        0.0156
     21 C          62.3282   94.1407    1.5970 C.2     1  UNL1        0.0668
     22 C          60.0290   88.8883    9.6897 C.2     1  UNL1        0.2439
     23 O          58.7093   88.7632   10.3915 O.2     1  UNL1       -0.2731
     24 N          61.1723   89.5893   10.3616 N.am    1  UNL1       -0.2781
     25 C          60.9959   90.1652   11.7353 C.3     1  UNL1        0.0948
     26 C          62.1392   90.8662   12.4072 C.3     1  UNL1        0.0375
     27 C          63.4589   90.9913   11.7053 C.3     1  UNL1        0.0609
     28 C          63.6353   90.4154   10.3316 C.3     1  UNL1        0.0375
     29 C          62.4920   89.7144    9.6597 C.3     1  UNL1        0.0948
     30 N          64.6022   91.6924   12.3772 N.3     1  UNL1       -0.2738
     31 C          65.0578   91.2513   13.7366 C.3     1  UNL1        0.0720
     32 C          66.2011   91.9523   14.4085 C.3     1  UNL1        0.0174
     33 C          66.8889   93.0944   13.7210 C.3     1  UNL1        0.0029
     34 C          66.4333   93.5354   12.3616 C.3     1  UNL1        0.0174
     35 C          65.2900   92.8344   11.6898 C.3     1  UNL1        0.0720
     36 C          60.0125   86.8423    8.0885 C.3     1  UNL1        0.0570
     37 C          61.1773   85.9051    8.2116 C.2     1  UNL1        0.0002
     38 C          61.8942   85.2358    7.0767 C.2     1  UNL1        0.0943
     39 N          62.9895   84.3898    7.6550 N.2     1  UNL1       -0.2482
     40 C          62.9496   84.5362    9.1473 C.2     1  UNL1        0.0631
     41 C          63.7884   83.9378   10.2373 C.3     1  UNL1        0.0717
     42 C          63.5071   84.2758   11.6714 C.2     1  UNL1       -0.0198
     43 C          62.3871   85.2124   12.0154 C.2     1  UNL1       -0.0042
     44 C          61.5483   85.8108   10.9254 C.2     1  UNL1        0.0006
     45 C          61.8295   85.4728    9.4913 C.2     1  UNL1        0.0115
@<TRIPOS>BOND
     1     2     3    2
     2     3     4   am
     3     4     1    1
     4     1    36    1
     5    36    37    1
     6    37    38    2
     7    38    39    1
     8    39    40    2
     9    40    41    1
    10    41    42    1
    11    42    43    2
    12    43    44    1
    13    44    45    2
    14     1    22    1
    15    22    23    2
    16    22    24   am
    17    24    25    1
    18    25    26    1
    19    26    27    1
    20    27    30    1
    21    30    31    1
    22    31    32    1
    23    32    33    1
    24    33    34    1
    25    34    35    1
    26    27    28    1
    27    28    29    1
    28     3     5   am
    29     5     6    1
    30     6     7    1
    31     7     8    1
    32     8    12    1
    33    12    13   am
    34    13    14    2
    35    13    15    1
    36    15    16    2
    37    16    17    1
    38    17    18    1
    39    18    19    2
    40    19    20    1
    41    20    21    2
    42     8     9    1
    43     9    10    1
    44    45    37    1
    45    29    24    1
    46    10     5    1
    47    45    40    1
    48    35    30    1
    49    21    12    1
    50    21    16    1
    51     4    11    1
@<TRIPOS>MOLECULE
*****
 45 51 0 0 0
SMALL
GASTEIGER

@<TRIPOS>ATOM
      1 C          63.8472   90.0832   15.6787 C.3     1  UNL1        0.1544
      2 O          60.9684   89.8375   14.8715 O.2     1  UNL1       -0.2526
      3 C          62.0503   89.3759   13.9407 C.2     1  UNL1        0.3043
      4 N          63.4897   89.4988   14.3443 N.am    1  UNL1       -0.2822
      5 N          61.6927   88.7915   12.6063 N.am    1  UNL1       -0.2641
      6 C          60.2533   88.6687   12.2027 C.3     1  UNL1        0.0967
      7 C          59.8957   88.0843   10.8683 C.3     1  UNL1        0.0418
      8 C          60.9776   87.6227    9.9375 C.3     1  UNL1        0.0848
      9 C          62.4171   87.7455   10.3411 C.3     1  UNL1        0.0418
     10 C          62.7746   88.3299   11.6754 C.3     1  UNL1        0.0967
     11 H          64.1998   89.1958   13.7334 H       1  UNL1        0.1514
     12 N          60.6201   87.0383    8.6031 N.am    1  UNL1       -0.2422
     13 C          59.4194   87.3947    7.7776 C.2     1  UNL1        0.3310
     14 O          58.3655   88.3980    8.1416 O.2     1  UNL1       -0.2501
     15 N          59.4578   86.5715    6.5242 N.am    1  UNL1       -0.1647
     16 C          60.6821   85.7063    6.5751 C.2     1  UNL1        0.0706
     17 C          61.2357   84.6931    5.6175 C.3     1  UNL1        0.0705
     18 C          62.5075   83.9684    5.9446 C.2     1  UNL1       -0.0199
     19 C          63.2259   84.2569    7.2294 C.2     1  UNL1       -0.0029
     20 C          62.6724   85.2701    8.1870 C.2     1  UNL1        0.0156
     21 C          61.4005   85.9948    7.8599 C.2     1  UNL1        0.0668
     22 C          64.5810   91.3893   15.7531 C.2     1  UNL1        0.2439
     23 O          64.7614   92.0738   17.0756 O.2     1  UNL1       -0.2731
     24 N          65.1344   92.0109   14.5052 N.am    1  UNL1       -0.2781
     25 C          65.8681   93.3171   14.5796 C.3     1  UNL1        0.0948
     26 C          66.4215   93.9387   13.3316 C.3     1  UNL1        0.0375
     27 C          66.2410   93.2541   12.0092 C.3     1  UNL1        0.0609
     28 C          65.5072   91.9479   11.9348 C.3     1  UNL1        0.0375
     29 C          64.9539   91.3264   13.1827 C.3     1  UNL1        0.0948
     30 N          66.7943   93.8757   10.7612 N.3     1  UNL1       -0.2738
     31 C          67.5475   93.0337    9.7743 C.3     1  UNL1        0.0720
     32 C          68.1008   93.6553    8.5264 C.3     1  UNL1        0.0174
     33 C          67.9011   95.1188    8.2652 C.3     1  UNL1        0.0029
     34 C          67.1479   95.9607    9.2521 C.3     1  UNL1        0.0174
     35 C          66.5946   95.3392   10.5001 C.3     1  UNL1        0.0720
     36 C          63.4710   89.3614   16.9387 C.3     1  UNL1        0.0570
     37 C          63.0624   87.9192   16.8835 C.2     1  UNL1        0.0002
     38 C          61.9249   87.2956   17.6367 C.2     1  UNL1        0.0943
     39 N          61.8791   85.8384   17.2839 N.2     1  UNL1       -0.2482
     40 C          62.9882   85.5614   16.3128 C.2     1  UNL1        0.0631
     41 C          63.4267   84.3043   15.6219 C.3     1  UNL1        0.0717
     42 C          64.5965   84.3332   14.6834 C.2     1  UNL1       -0.0198
     43 C          65.3278   85.6193   14.4359 C.2     1  UNL1       -0.0042
     44 C          64.8893   86.8764   15.1268 C.2     1  UNL1        0.0006
     45 C          63.7195   86.8474   16.0652 C.2     1  UNL1        0.0115
@<TRIPOS>BOND
     1     2     3    2
     2     3     4   am
     3     4     1    1
     4     1    36    1
     5    36    37    1
     6    37    38    2
     7    38    39    1
     8    39    40    2
     9    40    41    1
    10    41    42    1
    11    42    43    2
    12    43    44    1
    13    44    45    2
    14     1    22    1
    15    22    23    2
    16    22    24   am
    17    24    25    1
    18    25    26    1
    19    26    27    1
    20    27    30    1
    21    30    31    1
    22    31    32    1
    23    32    33    1
    24    33    34    1
    25    34    35    1
    26    27    28    1
    27    28    29    1
    28     3     5   am
    29     5     6    1
    30     6     7    1
    31     7     8    1
    32     8    12    1
    33    12    13   am
    34    13    14    2
    35    13    15    1
    36    15    16    2
    37    16    17    1
    38    17    18    1
    39    18    19    2
    40    19    20    1
    41    20    21    2
    42     8     9    1
    43     9    10    1
    44    45    37    1
    45    29    24    1
    46    10     5    1
    47    45    40    1
    48    35    30    1
    49    21    12    1
    50    21    16    1
    51     4    11    1
@<TRIPOS>MOLECULE
*****
 45 51 0 0 0
SMALL
GASTEIGER

@<TRIPOS>ATOM
      1 C          59.6226   88.6411    7.6008 C.3     1  UNL1        0.1544
      2 O          59.2751   88.3778   10.5689 O.2     1  UNL1       -0.2526
      3 C          60.4828   89.0731   10.0140 C.2     1  UNL1        0.3043
      4 N          60.6565   89.2048    8.5299 N.am    1  UNL1       -0.2822
      5 N          61.5167   89.6368   10.9431 N.am    1  UNL1       -0.2641
      6 C          61.3429   89.5051   12.4272 C.3     1  UNL1        0.0967
      7 C          62.3768   90.0688   13.3563 C.3     1  UNL1        0.0418
      8 C          63.5845   90.7641   12.8014 C.3     1  UNL1        0.0848
      9 C          63.7583   90.8958   11.3173 C.3     1  UNL1        0.0418
     10 C          62.7244   90.3322   10.3882 C.3     1  UNL1        0.0967
     11 H          61.4491   89.6612    8.1657 H       1  UNL1        0.1514
     12 N          64.6184   91.3278   13.7305 N.am    1  UNL1       -0.2422
     13 C          64.4135   91.6641   15.1779 C.2     1  UNL1        0.3310
     14 O          63.1387   91.4957   15.9503 O.2     1  UNL1       -0.2501
     15 N          65.7073   92.1983   15.7173 N.am    1  UNL1       -0.1647
     16 C          66.7117   92.1921   14.6032 C.2     1  UNL1        0.0706
     17 C          68.1522   92.6069   14.5483 C.3     1  UNL1        0.0705
     18 C          68.9197   92.4838   13.2655 C.2     1  UNL1       -0.0199
     19 C          68.2468   91.9458   12.0376 C.2     1  UNL1       -0.0029
     20 C          66.8063   91.5310   12.0925 C.2     1  UNL1        0.0156
     21 C          66.0388   91.6542   13.3754 C.2     1  UNL1        0.0668
     22 C          58.7826   89.5619    6.7661 C.2     1  UNL1        0.2439
     23 O          57.2975   89.6138    6.9702 O.2     1  UNL1       -0.2731
     24 N          59.4278   90.4306    5.7273 N.am    1  UNL1       -0.2781
     25 C          58.5878   91.3513    4.8926 C.3     1  UNL1        0.0948
     26 C          59.2330   92.2200    3.8538 C.3     1  UNL1        0.0375
     27 C          60.7181   92.1680    3.6497 C.3     1  UNL1        0.0609
     28 C          61.5581   91.2472    4.4844 C.3     1  UNL1        0.0375
     29 C          60.9129   90.3785    5.5232 C.3     1  UNL1        0.0948
     30 N          61.3633   93.0367    2.6109 N.3     1  UNL1       -0.2738
     31 C          60.5702   94.1191    1.9406 C.3     1  UNL1        0.0720
     32 C          61.2154   94.9878    0.9018 C.3     1  UNL1        0.0174
     33 C          62.6536   94.7742    0.5333 C.3     1  UNL1        0.0029
     34 C          63.4467   93.6917    1.2037 C.3     1  UNL1        0.0174
     35 C          62.8015   92.8230    2.2424 C.3     1  UNL1        0.0720
     36 C          59.4286   87.1566    7.5064 C.3     1  UNL1        0.0570
     37 C          60.6154   86.2406    7.5548 C.2     1  UNL1        0.0002
     38 C          61.2836   85.6001    6.3745 C.2     1  UNL1        0.0943
     39 N          62.4236   84.7679    6.8824 N.2     1  UNL1       -0.2482
     40 C          62.4599   84.8941    8.3766 C.2     1  UNL1        0.0631
     41 C          63.3662   84.2978    9.4125 C.3     1  UNL1        0.0717
     42 C          63.1549   84.6117   10.8640 C.2     1  UNL1       -0.0198
     43 C          62.0374   85.5219   11.2796 C.2     1  UNL1       -0.0042
     44 C          61.1311   86.1182   10.2437 C.2     1  UNL1        0.0006
     45 C          61.3424   85.8043    8.7922 C.2     1  UNL1        0.0115
@<TRIPOS>BOND
     1     2     3    2
     2     3     4   am
     3     4     1    1
     4     1    36    1
     5    36    37    1
     6    37    38    2
     7    38    39    1
     8    39    40    2
     9    40    41    1
    10    41    42    1
    11    42    43    2
    12    43    44    1
    13    44    45    2
    14     1    22    1
    15    22    23    2
    16    22    24   am
    17    24    25    1
    18    25    26    1
    19    26    27    1
    20    27    30    1
    21    30    31    1
    22    31    32    1
    23    32    33    1
    24    33    34    1
    25    34    35    1
    26    27    28    1
    27    28    29    1
    28     3     5   am
    29     5     6    1
    30     6     7    1
    31     7     8    1
    32     8    12    1
    33    12    13   am
    34    13    14    2
    35    13    15    1
    36    15    16    2
    37    16    17    1
    38    17    18    1
    39    18    19    2
    40    19    20    1
    41    20    21    2
    42     8     9    1
    43     9    10    1
    44    45    37    1
    45    29    24    1
    46    10     5    1
    47    45    40    1
    48    35    30    1
    49    21    12    1
    50    21    16    1
    51     4    11    1
@<TRIPOS>MOLECULE
*****
 45 51 0 0 0
SMALL
GASTEIGER

@<TRIPOS>ATOM
      1 C          62.1712   86.6522   12.1903 C.3     1  UNL1        0.1544
      2 O          60.8211   85.5093    9.7674 O.2     1  UNL1       -0.2526
      3 C          61.0061   86.9925    9.8932 C.2     1  UNL1        0.3043
      4 N          61.6812   87.5639   11.1047 N.am    1  UNL1       -0.2822
      5 N          60.5160   87.9042    8.8076 N.am    1  UNL1       -0.2641
      6 C          59.8410   87.3327    7.5961 C.3     1  UNL1        0.0967
      7 C          59.3509   88.2444    6.5105 C.3     1  UNL1        0.0418
      8 C          59.5359   89.7276    6.6363 C.3     1  UNL1        0.0848
      9 C          60.2110   90.2992    7.8477 C.3     1  UNL1        0.0418
     10 C          60.7011   89.3874    8.9334 C.3     1  UNL1        0.0967
     11 H          61.8026   88.5374   11.1873 H       1  UNL1        0.1514
     12 N          59.0459   90.6394    5.5507 N.am    1  UNL1       -0.2422
     13 C          57.6152   91.0020    5.2828 C.2     1  UNL1        0.3310
     14 O          56.4235   90.5166    6.0535 O.2     1  UNL1       -0.2501
     15 N          57.5856   91.9353    4.1088 N.am    1  UNL1       -0.1647
     16 C          58.9980   92.1495    3.6512 C.2     1  UNL1        0.0706
     17 C          59.5789   92.9703    2.5382 C.3     1  UNL1        0.0705
     18 C          61.0622   92.9902    2.3162 C.2     1  UNL1       -0.0199
     19 C          61.9647   92.1893    3.2073 C.2     1  UNL1       -0.0029
     20 C          61.3838   91.3685    4.3203 C.2     1  UNL1        0.0156
     21 C          59.9005   91.3486    4.5422 C.2     1  UNL1        0.0668
     22 C          63.1246   87.1663   13.2279 C.2     1  UNL1        0.2439
     23 O          63.5060   86.2994   14.3911 O.2     1  UNL1       -0.2731
     24 N          63.6966   88.5473   13.1024 N.am    1  UNL1       -0.2781
     25 C          64.6500   89.0614   14.1401 C.3     1  UNL1        0.0948
     26 C          65.2220   90.4423   14.0145 C.3     1  UNL1        0.0375
     27 C          64.8406   91.3092   12.8513 C.3     1  UNL1        0.0609
     28 C          63.8873   90.7950   11.8136 C.3     1  UNL1        0.0375
     29 C          63.3152   89.4141   11.9392 C.3     1  UNL1        0.0948
     30 N          65.4127   92.6901   12.7257 N.3     1  UNL1       -0.2738
     31 C          66.0915   93.3303   13.9001 C.3     1  UNL1        0.0720
     32 C          66.6635   94.7113   13.7746 C.3     1  UNL1        0.0174
     33 C          66.5567   95.4521   12.4747 C.3     1  UNL1        0.0029
     34 C          65.8778   94.8118   11.3003 C.3     1  UNL1        0.0174
     35 C          65.3058   93.4309   11.4258 C.3     1  UNL1        0.0720
     36 C          61.7079   85.2263   12.2383 C.3     1  UNL1        0.0570
     37 C          62.7014   84.1100   12.1081 C.2     1  UNL1        0.0002
     38 C          63.9381   84.1250   11.2593 C.2     1  UNL1        0.0943
     39 N          64.6336   82.8071   11.4305 N.2     1  UNL1       -0.2482
     40 C          63.8268   81.9776   12.3851 C.2     1  UNL1        0.0631
     41 C          64.0253   80.5932   12.9270 C.3     1  UNL1        0.0717
     42 C          63.0296   80.0140   13.8878 C.2     1  UNL1       -0.0198
     43 C          61.8354   80.8193   14.3066 C.2     1  UNL1       -0.0042
     44 C          61.6369   82.2038   13.7646 C.2     1  UNL1        0.0006
     45 C          62.6327   82.7829   12.8038 C.2     1  UNL1        0.0115
@<TRIPOS>BOND
     1     2     3    2
     2     3     4   am
     3     4     1    1
     4     1    36    1
     5    36    37    1
     6    37    38    2
     7    38    39    1
     8    39    40    2
     9    40    41    1
    10    41    42    1
    11    42    43    2
    12    43    44    1
    13    44    45    2
    14     1    22    1
    15    22    23    2
    16    22    24   am
    17    24    25    1
    18    25    26    1
    19    26    27    1
    20    27    30    1
    21    30    31    1
    22    31    32    1
    23    32    33    1
    24    33    34    1
    25    34    35    1
    26    27    28    1
    27    28    29    1
    28     3     5   am
    29     5     6    1
    30     6     7    1
    31     7     8    1
    32     8    12    1
    33    12    13   am
    34    13    14    2
    35    13    15    1
    36    15    16    2
    37    16    17    1
    38    17    18    1
    39    18    19    2
    40    19    20    1
    41    20    21    2
    42     8     9    1
    43     9    10    1
    44    45    37    1
    45    29    24    1
    46    10     5    1
    47    45    40    1
    48    35    30    1
    49    21    12    1
    50    21    16    1
    51     4    11    1
