@<TRIPOS>MOLECULE
*****
 29 32 0 0 0
SMALL
GASTEIGER

@<TRIPOS>ATOM
      1 C          62.3534   88.8223   10.8069 C.ar    1  UNL1        0.0814
      2 C          62.7732   87.6336   11.6197 C.ar    1  UNL1        0.0381
      3 C          62.1984   86.2806   11.3219 C.ar    1  UNL1        0.1048
      4 C          61.2037   86.1161   10.2112 C.ar    1  UNL1        0.1005
      5 N          60.7839   87.3048    9.3984 N.ar    1  UNL1       -0.2905
      6 C          59.8296   87.4491    8.2501 C.ar    1  UNL1        0.0567
      7 C          59.0306   86.3450    7.6237 C.3     1  UNL1        0.0517
      8 C          59.8147   88.8914    7.8383 C.ar    1  UNL1        0.0730
      9 C          58.9980   89.4828    6.7277 C.3     1  UNL1        0.0534
     10 N          60.7597   89.6385    8.7320 N.ar    1  UNL1       -0.2299
     11 C          61.3588   88.6579    9.6962 C.ar    1  UNL1        0.1604
     12 N          62.6182   85.0918   12.1348 N.ar    1  UNL1       -0.1929
     13 N          62.3349   85.0523   13.6073 N.ar    1  UNL1       -0.1609
     14 C          62.7547   83.8636   14.4202 C.ar    1  UNL1        0.1208
     15 C          63.4578   82.7144   13.7606 C.ar    1  UNL1        0.0274
     16 C          63.7411   82.7539   12.2881 C.ar    1  UNL1        0.0642
     17 C          63.3213   83.9426   11.4752 C.ar    1  UNL1        0.2805
     18 O          63.6045   83.9821   10.0027 O.2     1  UNL1       -0.2652
     19 N          62.9283   90.1754   11.1046 N.pl3   1  UNL1       -0.3267
     20 H          63.2013   90.7675   10.3670 H       1  UNL1        0.1472
     21 C          63.0871   90.6264   12.5264 C.3     1  UNL1        0.1137
     22 C          64.1052   89.8167   15.2297 C.3     1  UNL1        0.0307
     23 C          64.9239   90.7252   14.3612 C.ar    1  UNL1       -0.0245
     24 C          66.2517   91.2290   14.8443 C.ar    1  UNL1       -0.0045
     25 C          67.0703   92.1375   13.9758 C.ar    1  UNL1       -0.0007
     26 C          66.5613   92.5424   12.6242 C.ar    1  UNL1       -0.0045
     27 C          65.2336   92.0387   12.1410 C.ar    1  UNL1       -0.0245
     28 C          64.7245   92.4436   10.7894 C.3     1  UNL1        0.0307
     29 C          64.4148   91.1301   13.0095 C.ar    1  UNL1       -0.0105
@<TRIPOS>BOND
     1    22    23    1
     2    23    24   ar
     3    24    25   ar
     4    25    26   ar
     5    26    27   ar
     6    27    28    1
     7    27    29   ar
     8    29    21    1
     9    21    19    1
    10    19     1    1
    11     1     2   ar
    12     2     3   ar
    13     3    12    1
    14    12    13   ar
    15    13    14   ar
    16    14    15   ar
    17    15    16   ar
    18    16    17   ar
    19    17    18    2
    20     3     4   ar
    21     4     5   ar
    22     5     6   ar
    23     6     7    1
    24     6     8   ar
    25     8     9    1
    26     8    10   ar
    27    10    11   ar
    28    29    23   ar
    29    11     1   ar
    30    17    12   ar
    31    11     5   ar
    32    19    20    1
@<TRIPOS>MOLECULE
*****
 29 32 0 0 0
SMALL
GASTEIGER

@<TRIPOS>ATOM
      1 C          62.3569   88.8254   10.8061 C.ar    1  UNL1        0.0814
      2 C          62.7782   87.6372   11.6189 C.ar    1  UNL1        0.0381
      3 C          62.2033   86.2838   11.3225 C.ar    1  UNL1        0.1048
      4 C          61.2071   86.1187   10.2133 C.ar    1  UNL1        0.1005
      5 N          60.7858   87.3069    9.4005 N.ar    1  UNL1       -0.2905
      6 C          59.8298   87.4505    8.2536 C.ar    1  UNL1        0.0567
      7 C          59.0302   86.3459    7.6288 C.3     1  UNL1        0.0517
      8 C          59.8139   88.8926    7.8411 C.ar    1  UNL1        0.0730
      9 C          58.9955   89.4833    6.7314 C.3     1  UNL1        0.0534
     10 N          60.7600   89.6403    8.7332 N.ar    1  UNL1       -0.2299
     11 C          61.3607   88.6602    9.6969 C.ar    1  UNL1        0.1604
     12 N          62.6245   85.0955   12.1353 N.ar    1  UNL1       -0.1929
     13 N          62.3412   85.0555   13.6077 N.ar    1  UNL1       -0.1609
     14 C          62.7625   83.8673   14.4205 C.ar    1  UNL1        0.1208
     15 C          63.4670   82.7190   13.7608 C.ar    1  UNL1        0.0274
     16 C          63.7504   82.7590   12.2884 C.ar    1  UNL1        0.0642
     17 C          63.3291   83.9473   11.4756 C.ar    1  UNL1        0.2805
     18 O          63.6124   83.9874   10.0031 O.2     1  UNL1       -0.2652
     19 N          62.9318   90.1788   11.1025 N.pl3   1  UNL1       -0.3267
     20 H          63.2036   90.7706   10.3642 H       1  UNL1        0.1472
     21 C          63.0927   90.6304   12.5239 C.3     1  UNL1        0.1137
     22 C          64.7257   92.4587   10.7945 C.3     1  UNL1        0.0307
     23 C          65.2388   92.0439   12.1415 C.ar    1  UNL1       -0.0245
     24 C          66.5684   92.5433   12.6240 C.ar    1  UNL1       -0.0045
     25 C          67.0815   92.1285   13.9711 C.ar    1  UNL1       -0.0007
     26 C          66.2650   91.2144   14.8358 C.ar    1  UNL1       -0.0045
     27 C          64.9354   90.7150   14.3534 C.ar    1  UNL1       -0.0245
     28 C          64.1189   89.8009   15.2181 C.3     1  UNL1        0.0307
     29 C          64.4223   91.1298   13.0062 C.ar    1  UNL1       -0.0105
@<TRIPOS>BOND
     1    22    23    1
     2    23    24   ar
     3    24    25   ar
     4    25    26   ar
     5    26    27   ar
     6    27    28    1
     7    27    29   ar
     8    29    21    1
     9    21    19    1
    10    19     1    1
    11     1     2   ar
    12     2     3   ar
    13     3    12    1
    14    12    13   ar
    15    13    14   ar
    16    14    15   ar
    17    15    16   ar
    18    16    17   ar
    19    17    18    2
    20     3     4   ar
    21     4     5   ar
    22     5     6   ar
    23     6     7    1
    24     6     8   ar
    25     8     9    1
    26     8    10   ar
    27    10    11   ar
    28    29    23   ar
    29    11     1   ar
    30    17    12   ar
    31    11     5   ar
    32    19    20    1
@<TRIPOS>MOLECULE
*****
 29 32 0 0 0
SMALL
GASTEIGER

@<TRIPOS>ATOM
      1 C          63.3064   86.7374   13.0120 C.ar    1  UNL1        0.0814
      2 C          62.4775   86.3435   11.8255 C.ar    1  UNL1        0.0381
      3 C          62.0577   87.3805   10.8264 C.ar    1  UNL1        0.1048
      4 C          62.4669   88.8114   11.0137 C.ar    1  UNL1        0.1005
      5 N          63.2958   89.2053   12.2001 N.ar    1  UNL1       -0.2905
      6 C          63.8459   90.5277   12.6457 C.ar    1  UNL1        0.0567
      7 C          63.6676   91.8395   11.9405 C.3     1  UNL1        0.0517
      8 C          64.6056   90.3080   13.9203 C.ar    1  UNL1        0.0730
      9 C          65.3205   91.3616   14.7134 C.3     1  UNL1        0.0534
     10 N          64.5251   88.8498   14.2625 N.ar    1  UNL1       -0.2299
     11 C          63.7155   88.1683   13.1993 C.ar    1  UNL1        0.1604
     12 N          61.2288   86.9866    9.6398 N.ar    1  UNL1       -0.1929
     13 N          59.8509   87.5534    9.4662 N.ar    1  UNL1       -0.1609
     14 C          59.0220   87.1595    8.2797 C.ar    1  UNL1        0.1208
     15 C          59.5709   86.1989    7.2668 C.ar    1  UNL1        0.0274
     16 C          60.9488   85.6321    7.4405 C.ar    1  UNL1        0.0642
     17 C          61.7778   86.0260    8.6270 C.ar    1  UNL1        0.2805
     18 O          63.1557   85.4592    8.8007 O.2     1  UNL1       -0.2652
     19 N          63.7261   85.7003   14.0113 N.pl3   1  UNL1       -0.3267
     20 H          63.5676   85.8493   14.9714 H       1  UNL1        0.1472
     21 C          64.3874   84.4364   13.5475 C.3     1  UNL1        0.1137
     22 C          64.5742   82.8606   11.0015 C.3     1  UNL1        0.0307
     23 C          63.6716   82.3968   12.1061 C.ar    1  UNL1       -0.0245
     24 C          62.8622   81.1451   11.9376 C.ar    1  UNL1       -0.0045
     25 C          61.9596   80.6814   13.0422 C.ar    1  UNL1       -0.0007
     26 C          61.8662   81.4692   14.3152 C.ar    1  UNL1       -0.0045
     27 C          62.6754   82.7209   14.4836 C.ar    1  UNL1       -0.0245
     28 C          62.5820   83.5088   15.7566 C.3     1  UNL1        0.0307
     29 C          63.5782   83.1847   13.3791 C.ar    1  UNL1       -0.0105
@<TRIPOS>BOND
     1    22    23    1
     2    23    24   ar
     3    24    25   ar
     4    25    26   ar
     5    26    27   ar
     6    27    28    1
     7    27    29   ar
     8    29    21    1
     9    21    19    1
    10    19     1    1
    11     1     2   ar
    12     2     3   ar
    13     3    12    1
    14    12    13   ar
    15    13    14   ar
    16    14    15   ar
    17    15    16   ar
    18    16    17   ar
    19    17    18    2
    20     3     4   ar
    21     4     5   ar
    22     5     6   ar
    23     6     7    1
    24     6     8   ar
    25     8     9    1
    26     8    10   ar
    27    10    11   ar
    28    29    23   ar
    29    11     1   ar
    30    17    12   ar
    31    11     5   ar
    32    19    20    1
@<TRIPOS>MOLECULE
*****
 29 32 0 0 0
SMALL
GASTEIGER

@<TRIPOS>ATOM
      1 C          63.6540   87.1573   13.6159 C.ar    1  UNL1        0.0814
      2 C          64.3819   88.2275   14.3739 C.ar    1  UNL1        0.0381
      3 C          64.3570   89.6442   13.8817 C.ar    1  UNL1        0.1048
      4 C          63.6041   89.9907   12.6314 C.ar    1  UNL1        0.1005
      5 N          62.8762   88.9205   11.8734 N.ar    1  UNL1       -0.2905
      6 C          62.0554   88.9608   10.6186 C.ar    1  UNL1        0.0567
      7 C          61.7675   90.1790    9.7922 C.3     1  UNL1        0.0517
      8 C          61.5730   87.5690   10.3352 C.ar    1  UNL1        0.0730
      9 C          60.7179   87.1512    9.1757 C.3     1  UNL1        0.0534
     10 N          62.0956   86.6685   11.4150 N.ar    1  UNL1       -0.2299
     11 C          62.9011   87.5038   12.3656 C.ar    1  UNL1        0.1604
     12 N          65.0850   90.7145   14.6397 N.ar    1  UNL1       -0.1929
     13 N          66.4249   91.1916   14.1633 N.ar    1  UNL1       -0.1609
     14 C          67.1529   92.2619   14.9213 C.ar    1  UNL1        0.1208
     15 C          66.5410   92.8551   16.1557 C.ar    1  UNL1        0.0274
     16 C          65.2011   92.3779   16.6321 C.ar    1  UNL1        0.0642
     17 C          64.4731   91.3076   15.8741 C.ar    1  UNL1        0.2805
     18 O          63.1332   90.8305   16.3505 O.2     1  UNL1       -0.2652
     19 N          63.6788   85.7405   14.1081 N.pl3   1  UNL1       -0.3267
     20 H          63.3242   85.5231   15.0004 H       1  UNL1        0.1472
     21 C          64.2441   84.6551   13.2407 C.3     1  UNL1        0.1137
     22 C          64.3714   83.0658   10.6995 C.3     1  UNL1        0.0307
     23 C          63.6123   82.5346   11.8791 C.ar    1  UNL1       -0.0245
     24 C          62.9168   81.2086   11.7881 C.ar    1  UNL1       -0.0045
     25 C          62.1576   80.6774   12.9677 C.ar    1  UNL1       -0.0007
     26 C          62.0940   81.4720   14.2383 C.ar    1  UNL1       -0.0045
     27 C          62.7895   82.7979   14.3293 C.ar    1  UNL1       -0.0245
     28 C          62.7258   83.5925   15.6000 C.3     1  UNL1        0.0307
     29 C          63.5486   83.3292   13.1497 C.ar    1  UNL1       -0.0105
@<TRIPOS>BOND
     1    22    23    1
     2    23    24   ar
     3    24    25   ar
     4    25    26   ar
     5    26    27   ar
     6    27    28    1
     7    27    29   ar
     8    29    21    1
     9    21    19    1
    10    19     1    1
    11     1     2   ar
    12     2     3   ar
    13     3    12    1
    14    12    13   ar
    15    13    14   ar
    16    14    15   ar
    17    15    16   ar
    18    16    17   ar
    19    17    18    2
    20     3     4   ar
    21     4     5   ar
    22     5     6   ar
    23     6     7    1
    24     6     8   ar
    25     8     9    1
    26     8    10   ar
    27    10    11   ar
    28    29    23   ar
    29    11     1   ar
    30    17    12   ar
    31    11     5   ar
    32    19    20    1
@<TRIPOS>MOLECULE
*****
 29 32 0 0 0
SMALL
GASTEIGER

@<TRIPOS>ATOM
      1 C          62.1388   88.5457   11.3749 C.ar    1  UNL1        0.0814
      2 C          62.6330   87.3269   12.0961 C.ar    1  UNL1        0.0381
      3 C          62.3122   85.9606   11.5668 C.ar    1  UNL1        0.1048
      4 C          61.4970   85.8131   10.3163 C.ar    1  UNL1        0.1005
      5 N          61.0027   87.0319    9.5951 N.ar    1  UNL1       -0.2905
      6 C          60.1846   87.1979    8.3489 C.ar    1  UNL1        0.0567
      7 C          59.6458   86.0896    7.4937 C.3     1  UNL1        0.0517
      8 C          59.9998   88.6669    8.1080 C.ar    1  UNL1        0.0730
      9 C          59.2438   89.2854    6.9695 C.3     1  UNL1        0.0534
     10 N          60.7038   89.4087    9.2053 N.ar    1  UNL1       -0.2299
     11 C          61.3236   88.3982   10.1244 C.ar    1  UNL1        0.1604
     12 N          62.8064   84.7417   12.2880 N.ar    1  UNL1       -0.1929
     13 N          62.5361   84.5766   13.7541 N.ar    1  UNL1       -0.1609
     14 C          63.0303   83.3578   14.4754 C.ar    1  UNL1        0.1208
     15 C          63.7949   82.3040   13.7304 C.ar    1  UNL1        0.0274
     16 C          64.0653   82.4691   12.2642 C.ar    1  UNL1        0.0642
     17 C          63.5710   83.6879   11.5430 C.ar    1  UNL1        0.2805
     18 O          63.8414   83.8530   10.0769 O.2     1  UNL1       -0.2652
     19 N          62.4597   89.9121   11.9042 N.pl3   1  UNL1       -0.3267
     20 H          61.8428   90.6613   11.7389 H       1  UNL1        0.1472
     21 C          63.7204   90.1368   12.6852 C.3     1  UNL1        0.1137
     22 C          65.5076   91.2123   14.8414 C.3     1  UNL1        0.0307
     23 C          65.4474   91.8951   13.5072 C.ar    1  UNL1       -0.0245
     24 C          66.2808   93.1158   13.2511 C.ar    1  UNL1       -0.0045
     25 C          66.2206   93.7986   11.9169 C.ar    1  UNL1       -0.0007
     26 C          65.3271   93.2608   10.8388 C.ar    1  UNL1       -0.0045
     27 C          64.4937   92.0402   11.0948 C.ar    1  UNL1       -0.0245
     28 C          63.6001   91.5024   10.0167 C.3     1  UNL1        0.0307
     29 C          64.5538   91.3573   12.4291 C.ar    1  UNL1       -0.0105
@<TRIPOS>BOND
     1    22    23    1
     2    23    24   ar
     3    24    25   ar
     4    25    26   ar
     5    26    27   ar
     6    27    28    1
     7    27    29   ar
     8    29    21    1
     9    21    19    1
    10    19     1    1
    11     1     2   ar
    12     2     3   ar
    13     3    12    1
    14    12    13   ar
    15    13    14   ar
    16    14    15   ar
    17    15    16   ar
    18    16    17   ar
    19    17    18    2
    20     3     4   ar
    21     4     5   ar
    22     5     6   ar
    23     6     7    1
    24     6     8   ar
    25     8     9    1
    26     8    10   ar
    27    10    11   ar
    28    29    23   ar
    29    11     1   ar
    30    17    12   ar
    31    11     5   ar
    32    19    20    1
@<TRIPOS>MOLECULE
*****
 29 32 0 0 0
SMALL
GASTEIGER

@<TRIPOS>ATOM
      1 C          63.4552   86.7703   13.1976 C.ar    1  UNL1        0.0814
      2 C          62.6572   86.3516   11.9985 C.ar    1  UNL1        0.0381
      3 C          62.2390   87.3725   10.9823 C.ar    1  UNL1        0.1048
      4 C          62.6187   88.8120   11.1651 C.ar    1  UNL1        0.1005
      5 N          63.4166   89.2307   12.3642 N.ar    1  UNL1       -0.2905
      6 C          63.9340   90.5665   12.8091 C.ar    1  UNL1        0.0567
      7 C          63.7463   91.8690   12.0891 C.3     1  UNL1        0.0517
      8 C          64.6721   90.3712   14.1003 C.ar    1  UNL1        0.0730
      9 C          65.3520   91.4442   14.8982 C.3     1  UNL1        0.0534
     10 N          64.6108   88.9147   14.4535 N.ar    1  UNL1       -0.2299
     11 C          63.8349   88.2099   13.3805 C.ar    1  UNL1        0.1604
     12 N          61.4410   86.9538    9.7831 N.ar    1  UNL1       -0.1929
     13 N          62.0622   86.0746    8.7385 N.ar    1  UNL1       -0.1609
     14 C          61.2643   85.6560    7.5394 C.ar    1  UNL1        0.1208
     15 C          59.8450   86.1164    7.3848 C.ar    1  UNL1        0.0274
     16 C          59.2238   86.9956    8.4293 C.ar    1  UNL1        0.0642
     17 C          60.0218   87.4143    9.6285 C.ar    1  UNL1        0.2805
     18 O          59.4006   88.2934   10.6731 O.2     1  UNL1       -0.2652
     19 N          63.8735   85.7494   14.2140 N.pl3   1  UNL1       -0.3267
     20 H          63.7454   85.9288   15.1735 H       1  UNL1        0.1472
     21 C          64.4869   84.4551   13.7683 C.3     1  UNL1        0.1137
     22 C          62.5691   83.5623   15.8955 C.3     1  UNL1        0.0307
     23 C          62.6600   82.8070   14.6027 C.ar    1  UNL1       -0.0245
     24 C          61.7920   81.6053   14.3734 C.ar    1  UNL1       -0.0045
     25 C          61.8830   80.8500   13.0807 C.ar    1  UNL1       -0.0007
     26 C          62.8419   81.2964   12.0171 C.ar    1  UNL1       -0.0045
     27 C          63.7099   82.4981   12.2463 C.ar    1  UNL1       -0.0245
     28 C          64.6688   82.9445   11.1828 C.3     1  UNL1        0.0307
     29 C          63.6189   83.2534   13.5391 C.ar    1  UNL1       -0.0105
@<TRIPOS>BOND
     1    22    23    1
     2    23    24   ar
     3    24    25   ar
     4    25    26   ar
     5    26    27   ar
     6    27    28    1
     7    27    29   ar
     8    29    21    1
     9    21    19    1
    10    19     1    1
    11     1     2   ar
    12     2     3   ar
    13     3    12    1
    14    12    13   ar
    15    13    14   ar
    16    14    15   ar
    17    15    16   ar
    18    16    17   ar
    19    17    18    2
    20     3     4   ar
    21     4     5   ar
    22     5     6   ar
    23     6     7    1
    24     6     8   ar
    25     8     9    1
    26     8    10   ar
    27    10    11   ar
    28    29    23   ar
    29    11     1   ar
    30    17    12   ar
    31    11     5   ar
    32    19    20    1
@<TRIPOS>MOLECULE
*****
 29 32 0 0 0
SMALL
GASTEIGER

@<TRIPOS>ATOM
      1 C          63.1572   87.8558   12.5770 C.ar    1  UNL1        0.0814
      2 C          62.3145   88.1479   11.3710 C.ar    1  UNL1        0.0381
      3 C          61.6324   87.0275   10.6435 C.ar    1  UNL1        0.1048
      4 C          61.7930   85.6149   11.1220 C.ar    1  UNL1        0.1005
      5 N          62.6356   85.3229   12.3281 N.ar    1  UNL1       -0.2905
      6 C          62.9757   84.0407   13.0282 C.ar    1  UNL1        0.0567
      7 C          62.5060   82.6709   12.6369 C.3     1  UNL1        0.0517
      8 C          63.8681   84.3686   14.1885 C.ar    1  UNL1        0.0730
      9 C          64.4473   83.3844   15.1611 C.3     1  UNL1        0.0534
     10 N          64.0795   85.8535   14.2054 N.ar    1  UNL1       -0.2299
     11 C          63.3178   86.4433   13.0555 C.ar    1  UNL1        0.1604
     12 N          60.7897   87.3195    9.4374 N.ar    1  UNL1       -0.1929
     13 N          60.3923   86.2072    8.5129 N.ar    1  UNL1       -0.1609
     14 C          59.5496   86.4992    7.3069 C.ar    1  UNL1        0.1208
     15 C          59.1042   87.9036    7.0253 C.ar    1  UNL1        0.0274
     16 C          59.5016   89.0160    7.9498 C.ar    1  UNL1        0.0642
     17 C          60.3443   88.7239    9.1559 C.ar    1  UNL1        0.2805
     18 O          60.7417   89.8363   10.0804 O.2     1  UNL1       -0.2652
     19 N          63.8394   88.9763   13.3046 N.pl3   1  UNL1       -0.3267
     20 H          64.5556   88.7796   13.9508 H       1  UNL1        0.1472
     21 C          63.4303   90.3963   13.0475 C.3     1  UNL1        0.1137
     22 C          65.4832   91.4193   14.9812 C.3     1  UNL1        0.0307
     23 C          65.4759   91.9122   13.5645 C.ar    1  UNL1       -0.0245
     24 C          66.4951   92.9167   13.1147 C.ar    1  UNL1       -0.0045
     25 C          66.4878   93.4096   11.6980 C.ar    1  UNL1       -0.0007
     26 C          65.4613   92.8982   10.7312 C.ar    1  UNL1       -0.0045
     27 C          64.4422   91.8938   11.1810 C.ar    1  UNL1       -0.0245
     28 C          63.4157   91.3823   10.2142 C.3     1  UNL1        0.0307
     29 C          64.4494   91.4007   12.5977 C.ar    1  UNL1       -0.0105
@<TRIPOS>BOND
     1    22    23    1
     2    23    24   ar
     3    24    25   ar
     4    25    26   ar
     5    26    27   ar
     6    27    28    1
     7    27    29   ar
     8    29    21    1
     9    21    19    1
    10    19     1    1
    11     1     2   ar
    12     2     3   ar
    13     3    12    1
    14    12    13   ar
    15    13    14   ar
    16    14    15   ar
    17    15    16   ar
    18    16    17   ar
    19    17    18    2
    20     3     4   ar
    21     4     5   ar
    22     5     6   ar
    23     6     7    1
    24     6     8   ar
    25     8     9    1
    26     8    10   ar
    27    10    11   ar
    28    29    23   ar
    29    11     1   ar
    30    17    12   ar
    31    11     5   ar
    32    19    20    1
@<TRIPOS>MOLECULE
*****
 29 32 0 0 0
SMALL
GASTEIGER

@<TRIPOS>ATOM
      1 C          63.1592   87.8665   12.5785 C.ar    1  UNL1        0.0814
      2 C          62.3122   88.1598   11.3758 C.ar    1  UNL1        0.0381
      3 C          61.6277   87.0401   10.6494 C.ar    1  UNL1        0.1048
      4 C          61.7902   85.6270   11.1258 C.ar    1  UNL1        0.1005
      5 N          62.6372   85.3337   12.3285 N.ar    1  UNL1       -0.2905
      6 C          62.9800   84.0508   13.0260 C.ar    1  UNL1        0.0567
      7 C          62.5092   82.6814   12.6347 C.3     1  UNL1        0.0517
      8 C          63.8764   84.3776   14.1835 C.ar    1  UNL1        0.0730
      9 C          64.4592   83.3924   15.1529 C.3     1  UNL1        0.0534
     10 N          64.0876   85.8626   14.2014 N.ar    1  UNL1       -0.2299
     11 C          63.3217   86.4535   13.0549 C.ar    1  UNL1        0.1604
     12 N          60.7807   87.3334    9.4467 N.ar    1  UNL1       -0.1929
     13 N          60.3454   86.2161    8.5455 N.ar    1  UNL1       -0.1609
     14 C          59.4984   86.5093    7.3427 C.ar    1  UNL1        0.1208
     15 C          59.0867   87.9198    7.0412 C.ar    1  UNL1        0.0274
     16 C          59.5220   89.0371    7.9424 C.ar    1  UNL1        0.0642
     17 C          60.3690   88.7438    9.1452 C.ar    1  UNL1        0.2805
     18 O          60.8043   89.8611   10.0464 O.2     1  UNL1       -0.2652
     19 N          63.8437   88.9863   13.3050 N.pl3   1  UNL1       -0.3267
     20 H          64.5606   88.7889   13.9502 H       1  UNL1        0.1472
     21 C          63.4359   90.4068   13.0483 C.3     1  UNL1        0.1137
     22 C          63.4427   91.3976   10.2166 C.3     1  UNL1        0.0307
     23 C          64.4613   91.9080   11.1923 C.ar    1  UNL1       -0.0245
     24 C          65.4833   92.9139   10.7522 C.ar    1  UNL1       -0.0045
     25 C          66.5019   93.4244   11.7278 C.ar    1  UNL1       -0.0007
     26 C          66.4984   92.9289   13.1437 C.ar    1  UNL1       -0.0045
     27 C          65.4765   91.9231   13.5838 C.ar    1  UNL1       -0.0245
     28 C          65.4730   91.4277   14.9996 C.3     1  UNL1        0.0307
     29 C          64.4578   91.4126   12.6081 C.ar    1  UNL1       -0.0105
@<TRIPOS>BOND
     1    22    23    1
     2    23    24   ar
     3    24    25   ar
     4    25    26   ar
     5    26    27   ar
     6    27    28    1
     7    27    29   ar
     8    29    21    1
     9    21    19    1
    10    19     1    1
    11     1     2   ar
    12     2     3   ar
    13     3    12    1
    14    12    13   ar
    15    13    14   ar
    16    14    15   ar
    17    15    16   ar
    18    16    17   ar
    19    17    18    2
    20     3     4   ar
    21     4     5   ar
    22     5     6   ar
    23     6     7    1
    24     6     8   ar
    25     8     9    1
    26     8    10   ar
    27    10    11   ar
    28    29    23   ar
    29    11     1   ar
    30    17    12   ar
    31    11     5   ar
    32    19    20    1
@<TRIPOS>MOLECULE
*****
 29 32 0 0 0
SMALL
GASTEIGER

@<TRIPOS>ATOM
      1 C          62.3239   88.6084   11.1848 C.ar    1  UNL1        0.0814
      2 C          62.7965   87.4042   11.9441 C.ar    1  UNL1        0.0381
      3 C          62.3784   86.0312   11.5082 C.ar    1  UNL1        0.1048
      4 C          61.4878   85.8624   10.3131 C.ar    1  UNL1        0.1005
      5 N          61.0152   87.0667    9.5539 N.ar    1  UNL1       -0.2905
      6 C          60.1375   87.2110    8.3461 C.ar    1  UNL1        0.0567
      7 C          59.4967   86.0899    7.5829 C.3     1  UNL1        0.0517
      8 C          60.0131   88.6732    8.0355 C.ar    1  UNL1        0.0730
      9 C          59.2260   89.2711    6.9071 C.3     1  UNL1        0.0534
     10 N          60.8139   89.4326    9.0513 N.ar    1  UNL1       -0.2299
     11 C          61.4333   88.4397    9.9898 C.ar    1  UNL1        0.1604
     12 N          62.8510   84.8269   12.2674 N.ar    1  UNL1       -0.1929
     13 N          62.5835   83.4510   11.7332 N.ar    1  UNL1       -0.1609
     14 C          63.0560   82.2467   12.4924 C.ar    1  UNL1        0.1208
     15 C          63.7961   82.4183   13.7858 C.ar    1  UNL1        0.0274
     16 C          64.0636   83.7942   14.3200 C.ar    1  UNL1        0.0642
     17 C          63.5910   84.9985   13.5608 C.ar    1  UNL1        0.2805
     18 O          63.8586   86.3744   14.0950 O.2     1  UNL1       -0.2652
     19 N          62.7420   89.9815   11.6207 N.pl3   1  UNL1       -0.3267
     20 H          62.8633   90.6944   10.9527 H       1  UNL1        0.1472
     21 C          62.9752   90.2684   13.0744 C.3     1  UNL1        0.1137
     22 C          64.4800   91.8856   11.0446 C.3     1  UNL1        0.0307
     23 C          64.9096   91.8984   12.4817 C.ar    1  UNL1       -0.0245
     24 C          66.0916   92.7198   12.9040 C.ar    1  UNL1       -0.0045
     25 C          66.5211   92.7326   14.3410 C.ar    1  UNL1       -0.0007
     26 C          65.7687   91.9240   15.3560 C.ar    1  UNL1       -0.0045
     27 C          64.5868   91.1026   14.9338 C.ar    1  UNL1       -0.0245
     28 C          63.8344   90.2940   15.9487 C.3     1  UNL1        0.0307
     29 C          64.1572   91.0898   13.4966 C.ar    1  UNL1       -0.0105
@<TRIPOS>BOND
     1    22    23    1
     2    23    24   ar
     3    24    25   ar
     4    25    26   ar
     5    26    27   ar
     6    27    28    1
     7    27    29   ar
     8    29    21    1
     9    21    19    1
    10    19     1    1
    11     1     2   ar
    12     2     3   ar
    13     3    12    1
    14    12    13   ar
    15    13    14   ar
    16    14    15   ar
    17    15    16   ar
    18    16    17   ar
    19    17    18    2
    20     3     4   ar
    21     4     5   ar
    22     5     6   ar
    23     6     7    1
    24     6     8   ar
    25     8     9    1
    26     8    10   ar
    27    10    11   ar
    28    29    23   ar
    29    11     1   ar
    30    17    12   ar
    31    11     5   ar
    32    19    20    1
