@<TRIPOS>MOLECULE
*****
 36 39 0 0 0
SMALL
GASTEIGER

@<TRIPOS>ATOM
      1 O          63.5537   87.5129   14.4727 O.3     1  UNL1       -0.4731
      2 C          64.0278   88.8491   13.9832 C.ar    1  UNL1        0.1681
      3 C          65.1430   89.5561   14.6949 C.ar    1  UNL1        0.0702
      4 C          65.6170   90.8923   14.2054 C.ar    1  UNL1        0.1620
      5 F          66.7323   91.5994   14.9172 F       1  UNL1       -0.2026
      6 C          64.9761   91.5217   13.0042 C.ar    1  UNL1        0.1549
      7 C          63.8608   90.8147   12.2924 C.ar    1  UNL1        0.0553
      8 C          63.3867   89.4784   12.7819 C.ar    1  UNL1        0.1753
      9 F          62.2716   88.7714   12.0702 F       1  UNL1       -0.2009
     10 S          65.4501   92.8579   12.5146 S.O2    1  UNL1        0.0773
     11 O          65.8207   93.2403   13.9170 O.2     1  UNL1       -0.1498
     12 O          65.0796   92.4756   11.1123 O.2     1  UNL1       -0.1498
     13 N          65.9243   94.1942   12.0251 N.pl3   1  UNL1       -0.1925
     14 H          65.7032   95.0101   12.5298 H       1  UNL1        0.1758
     15 C          66.7351   94.2873   10.7667 C.ar    1  UNL1        0.1977
     16 N          67.7808   93.3101   10.3173 N.ar    1  UNL1       -0.1997
     17 C          68.3347   93.7926    9.0095 C.ar    1  UNL1        0.2082
     18 N          67.6315   95.0680    8.6506 N.ar    1  UNL1       -0.1840
     19 S          66.6429   95.3737    9.7366 S.2     1  UNL1        0.0508
     20 C          63.9353   86.2647   13.7335 C.3     1  UNL1        0.2058
     21 C          63.0974   85.7877   12.5845 C.3     1  UNL1        0.0514
     22 N          63.5962   80.3408   14.2949 N.3     1  UNL1       -0.3222
     23 C          63.3994   81.6677   13.6236 C.3     1  UNL1        0.0508
     24 C          63.6277   82.9370   14.3896 C.3     1  UNL1        0.0158
     25 C          63.4309   84.2639   13.7183 C.3     1  UNL1        0.0055
     26 C          63.0057   84.3215   12.2811 C.3     1  UNL1        0.0226
     27 C          62.7773   83.0523   11.5150 C.3     1  UNL1        0.0055
     28 C          62.9742   81.7254   12.1863 C.3     1  UNL1        0.0158
     29 H          63.8828   80.4886   15.2626 H       1  UNL1        0.1188
     30 H          64.3185   79.8148   13.8030 H       1  UNL1        0.1188
     31 C          62.6123   84.8883   10.9491 C.ar    1  UNL1       -0.0227
     32 C          63.3894   84.5225    9.7193 C.ar    1  UNL1       -0.0043
     33 C          62.9960   85.0893    8.3874 C.ar    1  UNL1       -0.0003
     34 C          61.8256   86.0219    8.2853 C.ar    1  UNL1       -0.0000
     35 C          61.0486   86.3878    9.5151 C.ar    1  UNL1       -0.0003
     36 C          61.4420   85.8209   10.8469 C.ar    1  UNL1       -0.0043
@<TRIPOS>BOND
     1    23    22    1
     2    23    24    1
     3    24    25    1
     4    25    26    1
     5    26    21    1
     6    21    20    1
     7    20     1    1
     8     1     2    1
     9     2     3   ar
    10     3     4   ar
    11     4     5    1
    12     4     6   ar
    13     6    10    1
    14    10    11    2
    15    10    12    2
    16    10    13    1
    17    13    15    1
    18    15    16   ar
    19    16    17   ar
    20    17    18   ar
    21    18    19   ar
    22     6     7   ar
    23     7     8   ar
    24     8     9    1
    25    26    31    1
    26    31    32   ar
    27    32    33   ar
    28    33    34   ar
    29    34    35   ar
    30    35    36   ar
    31    26    27    1
    32    27    28    1
    33    28    23    1
    34     8     2   ar
    35    36    31   ar
    36    19    15   ar
    37    22    29    1
    38    22    30    1
    39    13    14    1
@<TRIPOS>MOLECULE
*****
 36 39 0 0 0
SMALL
GASTEIGER

@<TRIPOS>ATOM
      1 O          62.7399   88.8590   13.1305 O.3     1  UNL1       -0.4731
      2 C          63.6073   90.0325   12.7839 C.ar    1  UNL1        0.1681
      3 C          63.4047   90.7577   11.4866 C.ar    1  UNL1        0.0702
      4 C          64.2722   91.9313   11.1399 C.ar    1  UNL1        0.1620
      5 F          64.0695   92.6565    9.8425 F       1  UNL1       -0.2026
      6 C          65.3422   92.3798   12.0906 C.ar    1  UNL1        0.1549
      7 C          65.5448   91.6546   13.3880 C.ar    1  UNL1        0.0553
      8 C          64.6774   90.4811   13.7346 C.ar    1  UNL1        0.1753
      9 F          64.8800   89.7559   15.0320 F       1  UNL1       -0.2009
     10 S          66.2096   93.5534   11.7440 S.O2    1  UNL1        0.0773
     11 O          66.5935   92.8890   10.4550 O.2     1  UNL1       -0.1498
     12 O          65.8258   94.2178   13.0328 O.2     1  UNL1       -0.1498
     13 N          67.0771   94.7271   11.3973 N.pl3   1  UNL1       -0.1925
     14 H          67.7869   95.0144   12.0161 H       1  UNL1        0.1758
     15 C          66.8630   95.4629   10.1079 C.ar    1  UNL1        0.1977
     16 N          67.7973   95.4757    8.9344 N.ar    1  UNL1       -0.1997
     17 C          67.1889   96.3358    7.8667 C.ar    1  UNL1        0.2082
     18 N          65.8785   96.8545    8.3802 N.ar    1  UNL1       -0.1840
     19 S          65.6771   96.3150    9.7653 S.2     1  UNL1        0.0508
     20 C          61.8508   88.2494   12.0875 C.3     1  UNL1        0.2058
     21 C          62.3672   87.1445   11.2144 C.3     1  UNL1        0.0514
     22 N          58.6387   88.4282    7.0559 N.3     1  UNL1       -0.3222
     23 C          59.6270   87.8648    8.0336 C.3     1  UNL1        0.0508
     24 C          60.1297   88.7123    9.1645 C.3     1  UNL1        0.0158
     25 C          61.1181   88.1488   10.1421 C.3     1  UNL1        0.0055
     26 C          61.6037   86.7380    9.9888 C.3     1  UNL1        0.0226
     27 C          61.1010   85.8905    8.8579 C.3     1  UNL1        0.0055
     28 C          60.1127   86.4539    7.8802 C.3     1  UNL1        0.0158
     29 H          58.4210   89.3918    7.3097 H       1  UNL1        0.1188
     30 H          57.7851   87.8702    7.0757 H       1  UNL1        0.1188
     31 C          62.3545   85.4682   10.2611 C.ar    1  UNL1       -0.0227
     32 C          62.3355   84.8655   11.6346 C.ar    1  UNL1       -0.0043
     33 C          63.0864   83.5958   11.9068 C.ar    1  UNL1       -0.0003
     34 C          63.8561   82.9289   10.8056 C.ar    1  UNL1       -0.0000
     35 C          63.8751   83.5316    9.4322 C.ar    1  UNL1       -0.0003
     36 C          63.1243   84.8013    9.1600 C.ar    1  UNL1       -0.0043
@<TRIPOS>BOND
     1    23    22    1
     2    23    24    1
     3    24    25    1
     4    25    26    1
     5    26    21    1
     6    21    20    1
     7    20     1    1
     8     1     2    1
     9     2     3   ar
    10     3     4   ar
    11     4     5    1
    12     4     6   ar
    13     6    10    1
    14    10    11    2
    15    10    12    2
    16    10    13    1
    17    13    15    1
    18    15    16   ar
    19    16    17   ar
    20    17    18   ar
    21    18    19   ar
    22     6     7   ar
    23     7     8   ar
    24     8     9    1
    25    26    31    1
    26    31    32   ar
    27    32    33   ar
    28    33    34   ar
    29    34    35   ar
    30    35    36   ar
    31    26    27    1
    32    27    28    1
    33    28    23    1
    34     8     2   ar
    35    36    31   ar
    36    19    15   ar
    37    22    29    1
    38    22    30    1
    39    13    14    1
@<TRIPOS>MOLECULE
*****
 36 39 0 0 0
SMALL
GASTEIGER

@<TRIPOS>ATOM
      1 O          60.9291   88.7983   12.0448 O.3     1  UNL1       -0.4731
      2 C          62.0935   89.7421   11.9869 C.ar    1  UNL1        0.1681
      3 C          63.0563   89.8167   13.1347 C.ar    1  UNL1        0.0702
      4 C          64.2206   90.7606   13.0767 C.ar    1  UNL1        0.1620
      5 F          65.1835   90.8352   14.2246 F       1  UNL1       -0.2026
      6 C          64.4222   91.6299   11.8711 C.ar    1  UNL1        0.1549
      7 C          63.4593   91.5553   10.7232 C.ar    1  UNL1        0.0553
      8 C          62.2950   90.6114   10.7812 C.ar    1  UNL1        0.1753
      9 F          61.3322   90.5368    9.6334 F       1  UNL1       -0.2009
     10 S          65.5865   92.5737   11.8131 S.O2    1  UNL1        0.0773
     11 O          65.2585   93.0631   13.1927 O.2     1  UNL1       -0.1498
     12 O          65.9146   92.0844   10.4337 O.2     1  UNL1       -0.1498
     13 N          66.7509   93.5177   11.7552 N.pl3   1  UNL1       -0.1925
     14 H          67.4903   93.4274   12.3989 H       1  UNL1        0.1758
     15 C          66.7886   94.5991   10.7165 C.ar    1  UNL1        0.1977
     16 N          67.8147   94.7447    9.6321 N.ar    1  UNL1       -0.1997
     17 C          67.4672   95.9604    8.8251 C.ar    1  UNL1        0.2082
     18 N          66.2263   96.5663    9.4107 N.ar    1  UNL1       -0.1840
     19 S          65.8069   95.7249   10.5797 S.2     1  UNL1        0.0508
     20 C          60.9305   87.5532   11.2083 C.3     1  UNL1        0.2058
     21 C          61.6045   86.3117   11.7123 C.3     1  UNL1        0.0514
     22 N          62.7176   84.6761    6.3338 N.3     1  UNL1       -0.3222
     23 C          62.5880   84.9210    7.8080 C.3     1  UNL1        0.0508
     24 C          61.6811   86.0045    8.3115 C.3     1  UNL1        0.0158
     25 C          61.5515   86.2493    9.7856 C.3     1  UNL1        0.0055
     26 C          62.3289   85.4107   10.7564 C.3     1  UNL1        0.0226
     27 C          63.2358   84.3272   10.2529 C.3     1  UNL1        0.0055
     28 C          63.3654   84.0824    8.7787 C.3     1  UNL1        0.0158
     29 H          62.1235   85.3321    5.8267 H       1  UNL1        0.1188
     30 H          62.4287   83.7213    6.1210 H       1  UNL1        0.1188
     31 C          62.8547   84.8850   12.0591 C.ar    1  UNL1       -0.0227
     32 C          63.4578   85.8263   13.0592 C.ar    1  UNL1       -0.0043
     33 C          63.9836   85.3006   14.3619 C.ar    1  UNL1       -0.0003
     34 C          63.9063   83.8335   14.6645 C.ar    1  UNL1       -0.0000
     35 C          63.3033   82.8921   13.6645 C.ar    1  UNL1       -0.0003
     36 C          62.7775   83.4179   12.3618 C.ar    1  UNL1       -0.0043
@<TRIPOS>BOND
     1    23    22    1
     2    23    24    1
     3    24    25    1
     4    25    26    1
     5    26    21    1
     6    21    20    1
     7    20     1    1
     8     1     2    1
     9     2     3   ar
    10     3     4   ar
    11     4     5    1
    12     4     6   ar
    13     6    10    1
    14    10    11    2
    15    10    12    2
    16    10    13    1
    17    13    15    1
    18    15    16   ar
    19    16    17   ar
    20    17    18   ar
    21    18    19   ar
    22     6     7   ar
    23     7     8   ar
    24     8     9    1
    25    26    31    1
    26    31    32   ar
    27    32    33   ar
    28    33    34   ar
    29    34    35   ar
    30    35    36   ar
    31    26    27    1
    32    27    28    1
    33    28    23    1
    34     8     2   ar
    35    36    31   ar
    36    19    15   ar
    37    22    29    1
    38    22    30    1
    39    13    14    1
@<TRIPOS>MOLECULE
*****
 36 39 0 0 0
SMALL
GASTEIGER

@<TRIPOS>ATOM
      1 O          61.0401   88.9294   12.1590 O.3     1  UNL1       -0.4731
      2 C          62.2113   89.8617   12.0643 C.ar    1  UNL1        0.1681
      3 C          63.1967   89.9449   13.1921 C.ar    1  UNL1        0.0702
      4 C          64.3679   90.8773   13.0974 C.ar    1  UNL1        0.1620
      5 F          65.3535   90.9604   14.2253 F       1  UNL1       -0.2026
      6 C          64.5537   91.7265   11.8750 C.ar    1  UNL1        0.1549
      7 C          63.5682   91.6433   10.7472 C.ar    1  UNL1        0.0553
      8 C          62.3970   90.7109   10.8418 C.ar    1  UNL1        0.1753
      9 F          61.4116   90.6277    9.7140 F       1  UNL1       -0.2009
     10 S          65.7249   92.6588   11.7804 S.O2    1  UNL1        0.0773
     11 O          65.4364   93.1618   13.1638 O.2     1  UNL1       -0.1498
     12 O          66.0135   92.1558   10.3970 O.2     1  UNL1       -0.1498
     13 N          66.8962   93.5912   11.6857 N.pl3   1  UNL1       -0.1925
     14 H          67.6600   93.4858   12.2978 H       1  UNL1        0.1758
     15 C          66.9035   94.6841   10.6584 C.ar    1  UNL1        0.1977
     16 N          67.8616   94.8093    9.5111 N.ar    1  UNL1       -0.1997
     17 C          67.5044   96.0463    8.7416 C.ar    1  UNL1        0.2082
     18 N          66.3255   96.6857    9.4133 N.ar    1  UNL1       -0.1840
     19 S          65.9542   95.8438   10.5980 S.2     1  UNL1        0.0508
     20 C          60.9802   87.7095   11.2883 C.3     1  UNL1        0.2058
     21 C          62.2408   87.1379   10.7102 C.3     1  UNL1        0.0514
     22 N          64.2518   83.2215   14.3790 N.3     1  UNL1       -0.3222
     23 C          63.7099   84.0540   13.2550 C.3     1  UNL1        0.0508
     24 C          63.4793   85.5228   13.4532 C.3     1  UNL1        0.0158
     25 C          62.9374   86.3553   12.3292 C.3     1  UNL1        0.0055
     26 C          62.6260   85.7189   11.0071 C.3     1  UNL1        0.0226
     27 C          62.8565   84.2500   10.8090 C.3     1  UNL1        0.0055
     28 C          63.3985   83.4176   11.9329 C.3     1  UNL1        0.0158
     29 H          64.4046   83.8121   15.1965 H       1  UNL1        0.1188
     30 H          65.1358   82.7999   14.0942 H       1  UNL1        0.1188
     31 C          62.1808   85.5753    9.5818 C.ar    1  UNL1       -0.0227
     32 C          60.8119   86.0332    9.1740 C.ar    1  UNL1       -0.0043
     33 C          60.3667   85.8896    7.7487 C.ar    1  UNL1       -0.0003
     34 C          61.2905   85.2881    6.7315 C.ar    1  UNL1       -0.0000
     35 C          62.6594   84.8301    7.1394 C.ar    1  UNL1       -0.0003
     36 C          63.1045   84.9738    8.5646 C.ar    1  UNL1       -0.0043
@<TRIPOS>BOND
     1    23    22    1
     2    23    24    1
     3    24    25    1
     4    25    26    1
     5    26    21    1
     6    21    20    1
     7    20     1    1
     8     1     2    1
     9     2     3   ar
    10     3     4   ar
    11     4     5    1
    12     4     6   ar
    13     6    10    1
    14    10    11    2
    15    10    12    2
    16    10    13    1
    17    13    15    1
    18    15    16   ar
    19    16    17   ar
    20    17    18   ar
    21    18    19   ar
    22     6     7   ar
    23     7     8   ar
    24     8     9    1
    25    26    31    1
    26    31    32   ar
    27    32    33   ar
    28    33    34   ar
    29    34    35   ar
    30    35    36   ar
    31    26    27    1
    32    27    28    1
    33    28    23    1
    34     8     2   ar
    35    36    31   ar
    36    19    15   ar
    37    22    29    1
    38    22    30    1
    39    13    14    1
@<TRIPOS>MOLECULE
*****
 36 39 0 0 0
SMALL
GASTEIGER

@<TRIPOS>ATOM
      1 O          61.3212   86.5848   11.1949 O.3     1  UNL1       -0.4731
      2 C          62.0757   87.8634   11.4091 C.ar    1  UNL1        0.1681
      3 C          63.0039   87.9994   12.5795 C.ar    1  UNL1        0.0702
      4 C          63.7583   89.2780   12.7938 C.ar    1  UNL1        0.1620
      5 F          64.6866   89.4140   13.9643 F       1  UNL1       -0.2026
      6 C          63.5846   90.4207   11.8377 C.ar    1  UNL1        0.1549
      7 C          62.6564   90.2847   10.6672 C.ar    1  UNL1        0.0553
      8 C          61.9019   89.0061   10.4530 C.ar    1  UNL1        0.1753
      9 F          60.9737   88.8701    9.2825 F       1  UNL1       -0.2009
     10 S          64.3391   91.6992   12.0520 S.O2    1  UNL1        0.0773
     11 O          63.8883   91.7256   13.4825 O.2     1  UNL1       -0.1498
     12 O          64.7898   91.6730   10.6216 O.2     1  UNL1       -0.1498
     13 N          65.0936   92.9779   12.2663 N.pl3   1  UNL1       -0.1925
     14 H          64.8360   93.7901   11.7731 H       1  UNL1        0.1758
     15 C          66.2405   93.0190   13.2321 C.ar    1  UNL1        0.1977
     16 N          66.3666   93.9357   14.4127 N.ar    1  UNL1       -0.1997
     17 C          67.6667   93.6339   15.0972 C.ar    1  UNL1        0.2082
     18 N          68.3443   92.5307   14.3396 N.ar    1  UNL1       -0.1840
     19 S          67.4628   92.1507   13.1869 S.2     1  UNL1        0.0508
     20 C          62.0486   85.2731   11.2100 C.3     1  UNL1        0.2058
     21 C          63.0086   84.9606   12.3193 C.3     1  UNL1        0.0514
     22 N          62.7162   79.2634   11.7735 N.3     1  UNL1       -0.3222
     23 C          62.8150   80.7082   12.1643 C.3     1  UNL1        0.0508
     24 C          62.7570   81.7755   11.1120 C.3     1  UNL1        0.0158
     25 C          62.8558   83.2203   11.5029 C.3     1  UNL1        0.0055
     26 C          63.0127   83.5978   12.9461 C.3     1  UNL1        0.0226
     27 C          63.0707   82.5305   13.9984 C.3     1  UNL1        0.0055
     28 C          62.9719   81.0857   13.6075 C.3     1  UNL1        0.0158
     29 H          62.6142   79.1912   10.7611 H       1  UNL1        0.1188
     30 H          61.9054   78.8430   12.2276 H       1  UNL1        0.1188
     31 C          63.1681   84.4486   14.1717 C.ar    1  UNL1       -0.0227
     32 C          62.1417   84.3853   15.2637 C.ar    1  UNL1       -0.0043
     33 C          62.2972   85.2361   16.4893 C.ar    1  UNL1       -0.0003
     34 C          63.4790   86.1501   16.6227 C.ar    1  UNL1       -0.0000
     35 C          64.5054   86.2134   15.5307 C.ar    1  UNL1       -0.0003
     36 C          64.3499   85.3626   14.3052 C.ar    1  UNL1       -0.0043
@<TRIPOS>BOND
     1    23    22    1
     2    23    24    1
     3    24    25    1
     4    25    26    1
     5    26    21    1
     6    21    20    1
     7    20     1    1
     8     1     2    1
     9     2     3   ar
    10     3     4   ar
    11     4     5    1
    12     4     6   ar
    13     6    10    1
    14    10    11    2
    15    10    12    2
    16    10    13    1
    17    13    15    1
    18    15    16   ar
    19    16    17   ar
    20    17    18   ar
    21    18    19   ar
    22     6     7   ar
    23     7     8   ar
    24     8     9    1
    25    26    31    1
    26    31    32   ar
    27    32    33   ar
    28    33    34   ar
    29    34    35   ar
    30    35    36   ar
    31    26    27    1
    32    27    28    1
    33    28    23    1
    34     8     2   ar
    35    36    31   ar
    36    19    15   ar
    37    22    29    1
    38    22    30    1
    39    13    14    1
@<TRIPOS>MOLECULE
*****
 36 39 0 0 0
SMALL
GASTEIGER

@<TRIPOS>ATOM
      1 O          62.7050   88.4532   13.0683 O.3     1  UNL1       -0.4731
      2 C          63.5368   89.6677   12.7800 C.ar    1  UNL1        0.1681
      3 C          63.3240   90.4384   11.5109 C.ar    1  UNL1        0.0702
      4 C          64.1557   91.6529   11.2226 C.ar    1  UNL1        0.1620
      5 F          63.9430   92.4237    9.9534 F       1  UNL1       -0.2026
      6 C          65.2003   92.0968   12.2034 C.ar    1  UNL1        0.1549
      7 C          65.4130   91.3260   13.4726 C.ar    1  UNL1        0.0553
      8 C          64.5813   90.1115   13.7609 C.ar    1  UNL1        0.1753
      9 F          64.7940   89.3407   15.0300 F       1  UNL1       -0.2009
     10 S          66.0320   93.3112   11.9151 S.O2    1  UNL1        0.0773
     11 O          66.3546   92.7675   10.5548 O.2     1  UNL1       -0.1498
     12 O          65.7094   93.8550   13.2753 O.2     1  UNL1       -0.1498
     13 N          66.8638   94.5258   11.6268 N.pl3   1  UNL1       -0.1925
     14 H          67.5927   94.7797   12.2379 H       1  UNL1        0.1758
     15 C          66.5849   95.3535   10.4073 C.ar    1  UNL1        0.1977
     16 N          65.3730   96.2076   10.1797 N.ar    1  UNL1       -0.1997
     17 C          65.5079   96.8544    8.8331 C.ar    1  UNL1        0.2082
     18 N          66.8032   96.4001    8.2283 N.ar    1  UNL1       -0.1840
     19 S          67.4688   95.4724    9.2013 S.2     1  UNL1        0.0508
     20 C          63.2003   87.0937   12.6728 C.3     1  UNL1        0.2058
     21 C          62.3176   86.1747   11.8816 C.3     1  UNL1        0.0514
     22 N          64.0753   81.2400   14.2055 N.3     1  UNL1       -0.3222
     23 C          63.6126   82.4031   13.3790 C.3     1  UNL1        0.0508
     24 C          63.3606   83.7315   14.0284 C.3     1  UNL1        0.0158
     25 C          62.8980   84.8946   13.2019 C.3     1  UNL1        0.0055
     26 C          62.6873   84.7293   11.7260 C.3     1  UNL1        0.0226
     27 C          62.9393   83.4009   11.0766 C.3     1  UNL1        0.0055
     28 C          63.4020   82.2378   11.9031 C.3     1  UNL1        0.0158
     29 H          64.1648   81.5293   15.1795 H       1  UNL1        0.1188
     30 H          64.9799   80.9173   13.8621 H       1  UNL1        0.1188
     31 C          62.3483   85.0660   10.3041 C.ar    1  UNL1       -0.0227
     32 C          63.2290   84.5853    9.1891 C.ar    1  UNL1       -0.0043
     33 C          62.8900   84.9220    7.7672 C.ar    1  UNL1       -0.0003
     34 C          61.6701   85.7392    7.4604 C.ar    1  UNL1       -0.0000
     35 C          60.7894   86.2198    8.5754 C.ar    1  UNL1       -0.0003
     36 C          61.1285   85.8832    9.9972 C.ar    1  UNL1       -0.0043
@<TRIPOS>BOND
     1    23    22    1
     2    23    24    1
     3    24    25    1
     4    25    26    1
     5    26    21    1
     6    21    20    1
     7    20     1    1
     8     1     2    1
     9     2     3   ar
    10     3     4   ar
    11     4     5    1
    12     4     6   ar
    13     6    10    1
    14    10    11    2
    15    10    12    2
    16    10    13    1
    17    13    15    1
    18    15    16   ar
    19    16    17   ar
    20    17    18   ar
    21    18    19   ar
    22     6     7   ar
    23     7     8   ar
    24     8     9    1
    25    26    31    1
    26    31    32   ar
    27    32    33   ar
    28    33    34   ar
    29    34    35   ar
    30    35    36   ar
    31    26    27    1
    32    27    28    1
    33    28    23    1
    34     8     2   ar
    35    36    31   ar
    36    19    15   ar
    37    22    29    1
    38    22    30    1
    39    13    14    1
@<TRIPOS>MOLECULE
*****
 36 39 0 0 0
SMALL
GASTEIGER

@<TRIPOS>ATOM
      1 O          61.4758   86.9181   11.6022 O.3     1  UNL1       -0.4731
      2 C          62.2430   88.2068   11.6275 C.ar    1  UNL1        0.1681
      3 C          63.1860   88.4963   12.7575 C.ar    1  UNL1        0.0702
      4 C          63.9531   89.7849   12.7827 C.ar    1  UNL1        0.1620
      5 F          64.8962   90.0744   13.9127 F       1  UNL1       -0.2026
      6 C          63.7774   90.7843   11.6780 C.ar    1  UNL1        0.1549
      7 C          62.8343   90.4948   10.5479 C.ar    1  UNL1        0.0553
      8 C          62.0671   89.2061   10.5227 C.ar    1  UNL1        0.1753
      9 F          61.1241   88.9166    9.3927 F       1  UNL1       -0.2009
     10 S          64.5445   92.0729   11.7032 S.O2    1  UNL1        0.0773
     11 O          64.5790   92.0818   10.2035 O.2     1  UNL1       -0.1498
     12 O          64.5100   92.0641   13.2027 O.2     1  UNL1       -0.1498
     13 N          65.3117   93.3617   11.7284 N.pl3   1  UNL1       -0.1925
     14 H          65.0079   94.1044   12.2988 H       1  UNL1        0.1758
     15 C          66.5418   93.5188   10.8844 C.ar    1  UNL1        0.1977
     16 N          67.6075   92.4835   10.6780 N.ar    1  UNL1       -0.1997
     17 C          68.6465   93.0635    9.7647 C.ar    1  UNL1        0.2082
     18 N          68.2230   94.4572    9.4067 N.ar    1  UNL1       -0.1840
     19 S          66.9222   94.7385   10.0988 S.2     1  UNL1        0.0508
     20 C          62.1982   85.6189   11.4017 C.3     1  UNL1        0.2058
     21 C          63.2070   85.1581   12.4116 C.3     1  UNL1        0.0514
     22 N          62.7267   79.4884   11.7292 N.3     1  UNL1       -0.3222
     23 C          62.8503   80.9211   12.1558 C.3     1  UNL1        0.0508
     24 C          62.9321   82.0066   11.1238 C.3     1  UNL1        0.0158
     25 C          63.0557   83.4393   11.5505 C.3     1  UNL1        0.0055
     26 C          63.0975   83.7865   13.0091 C.3     1  UNL1        0.0226
     27 C          63.0158   82.7011   14.0411 C.3     1  UNL1        0.0055
     28 C          62.8922   81.2683   13.6144 C.3     1  UNL1        0.0158
     29 H          62.7134   79.4369   10.7105 H       1  UNL1        0.1188
     30 H          61.8614   79.0964   12.1007 H       1  UNL1        0.1188
     31 C          63.1774   84.6101   14.2603 C.ar    1  UNL1       -0.0227
     32 C          62.1461   84.4414   15.3363 C.ar    1  UNL1       -0.0043
     33 C          62.2259   85.2650   16.5875 C.ar    1  UNL1       -0.0003
     34 C          63.3372   86.2572   16.7625 C.ar    1  UNL1       -0.0000
     35 C          64.3685   86.4259   15.6864 C.ar    1  UNL1       -0.0003
     36 C          64.2886   85.6024   14.4353 C.ar    1  UNL1       -0.0043
@<TRIPOS>BOND
     1    23    22    1
     2    23    24    1
     3    24    25    1
     4    25    26    1
     5    26    21    1
     6    21    20    1
     7    20     1    1
     8     1     2    1
     9     2     3   ar
    10     3     4   ar
    11     4     5    1
    12     4     6   ar
    13     6    10    1
    14    10    11    2
    15    10    12    2
    16    10    13    1
    17    13    15    1
    18    15    16   ar
    19    16    17   ar
    20    17    18   ar
    21    18    19   ar
    22     6     7   ar
    23     7     8   ar
    24     8     9    1
    25    26    31    1
    26    31    32   ar
    27    32    33   ar
    28    33    34   ar
    29    34    35   ar
    30    35    36   ar
    31    26    27    1
    32    27    28    1
    33    28    23    1
    34     8     2   ar
    35    36    31   ar
    36    19    15   ar
    37    22    29    1
    38    22    30    1
    39    13    14    1
@<TRIPOS>MOLECULE
*****
 36 39 0 0 0
SMALL
GASTEIGER

@<TRIPOS>ATOM
      1 O          61.5305   87.7522   11.5517 O.3     1  UNL1       -0.4731
      2 C          62.4609   88.9219   11.6782 C.ar    1  UNL1        0.1681
      3 C          63.3809   89.0242   12.8585 C.ar    1  UNL1        0.0702
      4 C          64.3113   90.1939   12.9851 C.ar    1  UNL1        0.1620
      5 F          65.2313   90.2962   14.1655 F       1  UNL1       -0.2026
      6 C          64.3218   91.2614   11.9314 C.ar    1  UNL1        0.1549
      7 C          63.4017   91.1592   10.7510 C.ar    1  UNL1        0.0553
      8 C          62.4713   89.9894   10.6244 C.ar    1  UNL1        0.1753
      9 F          61.5513   89.8872    9.4441 F       1  UNL1       -0.2009
     10 S          65.2522   92.4311   12.0580 S.O2    1  UNL1        0.0773
     11 O          64.8920   92.5607   13.5084 O.2     1  UNL1       -0.1498
     12 O          65.6123   92.3016   10.6077 O.2     1  UNL1       -0.1498
     13 N          66.1826   93.6009   12.1846 N.pl3   1  UNL1       -0.1925
     14 H          66.5868   93.8164   13.0560 H       1  UNL1        0.1758
     15 C          66.4972   94.4423   10.9833 C.ar    1  UNL1        0.1977
     16 N          67.6638   94.2578   10.0587 N.ar    1  UNL1       -0.1997
     17 C          67.5881   95.3174    8.9996 C.ar    1  UNL1        0.2082
     18 N          66.3746   96.1568    9.2697 N.ar    1  UNL1       -0.1840
     19 S          65.7005   95.6159   10.4957 S.2     1  UNL1        0.0508
     20 C          62.0794   86.3834   11.2781 C.3     1  UNL1        0.2058
     21 C          63.1487   85.8136   12.1622 C.3     1  UNL1        0.0514
     22 N          63.1953   80.4304   10.1971 N.3     1  UNL1       -0.3222
     23 C          63.1949   81.7330   10.9410 C.3     1  UNL1        0.0508
     24 C          63.1339   83.0277   10.1861 C.3     1  UNL1        0.0158
     25 C          63.1335   84.3303   10.9300 C.3     1  UNL1        0.0055
     26 C          63.1942   84.3381   12.4287 C.3     1  UNL1        0.0226
     27 C          63.2553   83.0434   13.1836 C.3     1  UNL1        0.0055
     28 C          63.2556   81.7408   12.4397 C.3     1  UNL1        0.0158
     29 H          63.1503   80.6115    9.1944 H       1  UNL1        0.1188
     30 H          62.3860   79.8774   10.4794 H       1  UNL1        0.1188
     31 C          63.2391   84.8583   13.8349 C.ar    1  UNL1       -0.0227
     32 C          64.2496   85.8988   14.2177 C.ar    1  UNL1       -0.0043
     33 C          64.2945   86.4190   15.6240 C.ar    1  UNL1       -0.0003
     34 C          63.3290   85.8988   16.6472 C.ar    1  UNL1       -0.0000
     35 C          62.3185   84.8583   16.2644 C.ar    1  UNL1       -0.0003
     36 C          62.2737   84.3382   14.8582 C.ar    1  UNL1       -0.0043
@<TRIPOS>BOND
     1    23    22    1
     2    23    24    1
     3    24    25    1
     4    25    26    1
     5    26    21    1
     6    21    20    1
     7    20     1    1
     8     1     2    1
     9     2     3   ar
    10     3     4   ar
    11     4     5    1
    12     4     6   ar
    13     6    10    1
    14    10    11    2
    15    10    12    2
    16    10    13    1
    17    13    15    1
    18    15    16   ar
    19    16    17   ar
    20    17    18   ar
    21    18    19   ar
    22     6     7   ar
    23     7     8   ar
    24     8     9    1
    25    26    31    1
    26    31    32   ar
    27    32    33   ar
    28    33    34   ar
    29    34    35   ar
    30    35    36   ar
    31    26    27    1
    32    27    28    1
    33    28    23    1
    34     8     2   ar
    35    36    31   ar
    36    19    15   ar
    37    22    29    1
    38    22    30    1
    39    13    14    1
@<TRIPOS>MOLECULE
*****
 36 39 0 0 0
SMALL
GASTEIGER

@<TRIPOS>ATOM
      1 O          62.6771   88.6630   13.2568 O.3     1  UNL1       -0.4731
      2 C          63.5337   89.8458   12.9147 C.ar    1  UNL1        0.1681
      3 C          63.3351   90.5642   11.6130 C.ar    1  UNL1        0.0702
      4 C          64.1917   91.7470   11.2709 C.ar    1  UNL1        0.1620
      5 F          63.9931   92.4655    9.9691 F       1  UNL1       -0.2026
      6 C          65.2470   92.2115   12.2304 C.ar    1  UNL1        0.1549
      7 C          65.4456   91.4930   13.5321 C.ar    1  UNL1        0.0553
      8 C          64.5890   90.3102   13.8743 C.ar    1  UNL1        0.1753
      9 F          64.7876   89.5918   15.1759 F       1  UNL1       -0.2009
     10 S          66.1036   93.3943   11.8883 S.O2    1  UNL1        0.0773
     11 O          65.8846   93.9509   13.2639 O.2     1  UNL1       -0.1498
     12 O          66.3227   92.8378   10.5127 O.2     1  UNL1       -0.1498
     13 N          66.9603   94.5772   11.5462 N.pl3   1  UNL1       -0.1925
     14 H          67.6854   94.8518   12.1529 H       1  UNL1        0.1758
     15 C          66.7121   95.3416   10.2797 C.ar    1  UNL1        0.1977
     16 N          67.5330   95.2622    9.0267 N.ar    1  UNL1       -0.1997
     17 C          66.9278   96.1911    8.0163 C.ar    1  UNL1        0.2082
     18 N          65.7329   96.8446    8.6448 N.ar    1  UNL1       -0.1840
     19 S          65.5996   96.3195   10.0436 S.2     1  UNL1        0.0508
     20 C          62.8431   87.3746   12.5068 C.3     1  UNL1        0.2058
     21 C          61.8752   87.0088   11.4209 C.3     1  UNL1        0.0514
     22 N          64.7003   82.2241   10.0186 N.3     1  UNL1       -0.3222
     23 C          63.8841   83.4763   10.1442 C.3     1  UNL1        0.0508
     24 C          63.8111   84.1952   11.4587 C.3     1  UNL1        0.0158
     25 C          62.9949   85.4474   11.5843 C.3     1  UNL1        0.0055
     26 C          62.2517   85.9807   10.3956 C.3     1  UNL1        0.0226
     27 C          62.3248   85.2618    9.0811 C.3     1  UNL1        0.0055
     28 C          63.1410   84.0096    8.9555 C.3     1  UNL1        0.0158
     29 H          65.1334   82.0089   10.9167 H       1  UNL1        0.1188
     30 H          65.4262   82.3605    9.3151 H       1  UNL1        0.1188
     31 C          61.3778   86.8711    9.5628 C.ar    1  UNL1       -0.0227
     32 C          61.5228   88.3613    9.6531 C.ar    1  UNL1       -0.0043
     33 C          60.6488   89.2517    8.8204 C.ar    1  UNL1       -0.0003
     34 C          59.6299   88.6518    7.8974 C.ar    1  UNL1       -0.0000
     35 C          59.4849   87.1615    7.8071 C.ar    1  UNL1       -0.0003
     36 C          60.3589   86.2712    8.6398 C.ar    1  UNL1       -0.0043
@<TRIPOS>BOND
     1    23    22    1
     2    23    24    1
     3    24    25    1
     4    25    26    1
     5    26    21    1
     6    21    20    1
     7    20     1    1
     8     1     2    1
     9     2     3   ar
    10     3     4   ar
    11     4     5    1
    12     4     6   ar
    13     6    10    1
    14    10    11    2
    15    10    12    2
    16    10    13    1
    17    13    15    1
    18    15    16   ar
    19    16    17   ar
    20    17    18   ar
    21    18    19   ar
    22     6     7   ar
    23     7     8   ar
    24     8     9    1
    25    26    31    1
    26    31    32   ar
    27    32    33   ar
    28    33    34   ar
    29    34    35   ar
    30    35    36   ar
    31    26    27    1
    32    27    28    1
    33    28    23    1
    34     8     2   ar
    35    36    31   ar
    36    19    15   ar
    37    22    29    1
    38    22    30    1
    39    13    14    1
