@<TRIPOS>MOLECULE
*****
 40 44 0 0 0
SMALL
GASTEIGER

@<TRIPOS>ATOM
      1 C          63.8159   88.9726   14.7063 C.ar    1  UNL1        0.2218
      2 N          63.7593   87.9682   15.8190 N.ar    1  UNL1       -0.2119
      3 C          63.5307   86.5184   15.5097 C.ar    1  UNL1        0.1061
      4 C          63.3586   86.0730   14.0878 C.ar    1  UNL1        0.0683
      5 C          63.4152   87.0773   12.9751 C.ar    1  UNL1        0.1343
      6 N          63.6439   88.5272   13.2844 N.ar    1  UNL1       -0.1988
      7 C          63.1299   84.6231   13.7785 C.ar    1  UNL1        0.0854
      8 C          62.5911   83.7064   14.8364 C.ar    1  UNL1        0.0193
      9 C          62.3624   82.2566   14.5272 C.ar    1  UNL1        0.0030
     10 C          62.6726   81.7234   13.1598 C.ar    1  UNL1        0.0177
     11 C          62.4439   80.2736   12.8506 C.ar    1  UNL1        0.0015
     12 C          62.7541   79.7404   11.4833 C.ar    1  UNL1        0.0001
     13 C          63.2930   80.6571   10.4253 C.ar    1  UNL1        0.0015
     14 C          63.5217   82.1069   10.7346 C.ar    1  UNL1        0.0191
     15 C          63.2115   82.6400   12.1019 C.ar    1  UNL1        0.0813
     16 N          63.4401   84.0899   12.4112 N.ar    1  UNL1       -0.2452
     17 N          64.0446   90.4225   15.0157 N.pl3   1  UNL1       -0.2824
     18 H          63.5088   90.8679   15.7112 H       1  UNL1        0.1551
     19 C          68.8145   92.4684   14.7656 C.3     1  UNL1        0.0521
     20 C          67.4745   92.2166   14.1402 C.ar    1  UNL1        0.0602
     21 C          66.4296   91.4454   14.8907 C.ar    1  UNL1        0.0294
     22 C          65.0896   91.1937   14.2652 C.ar    1  UNL1        0.0528
     23 C          64.7946   91.7132   12.8893 C.ar    1  UNL1        0.0294
     24 C          65.8396   92.4844   12.1389 C.ar    1  UNL1        0.0602
     25 C          65.5447   93.0040   10.7630 C.3     1  UNL1        0.0521
     26 N          67.1795   92.7362   12.7643 N.ar    1  UNL1       -0.2539
     27 N          63.2431   86.6318   11.5531 N.pl3   1  UNL1       -0.3172
     28 H          63.8557   85.9636   11.1691 H       1  UNL1        0.1482
     29 C          62.1378   87.2045   10.7163 C.3     1  UNL1        0.0998
     30 C          61.0504   86.4248   10.0385 C.3     1  UNL1        0.0271
     31 C          60.1664   87.3959    9.3136 C.3     1  UNL1        0.0604
     32 C          60.7074   88.7759    9.5435 C.3     1  UNL1        0.1412
     33 O          60.1312   90.0504    9.0016 O.3     1  UNL1       -0.3818
     34 C          61.9258   88.6576   10.4104 C.3     1  UNL1        0.1549
     35 O          62.7819   89.7931   10.8876 O.3     1  UNL1       -0.3803
     36 H          60.6700   90.8005    9.2981 H       1  UNL1        0.2104
     37 H          62.4274   90.6300   10.5485 H       1  UNL1        0.2105
     38 C          58.9542   87.0480    8.5015 C.3     1  UNL1        0.1396
     39 O          58.5353   87.9308    7.3635 O.3     1  UNL1       -0.3819
     40 H          58.2572   88.7935    7.7089 H       1  UNL1        0.2104
@<TRIPOS>BOND
     1    19    20    1
     2    20    21   ar
     3    21    22   ar
     4    22    17    1
     5    17     1    1
     6     1     2   ar
     7     2     3   ar
     8     3     4   ar
     9     4     7    1
    10     7     8   ar
    11     8     9   ar
    12     9    10   ar
    13    10    11   ar
    14    11    12   ar
    15    12    13   ar
    16    13    14   ar
    17    14    15   ar
    18    15    16   ar
    19     4     5   ar
    20     5    27    1
    21    29    27    1
    22    29    30    1
    23    30    31    1
    24    31    38    1
    25    38    39    1
    26    31    32    1
    27    32    33    1
    28    32    34    1
    29    34    35    1
    30     5     6   ar
    31    22    23   ar
    32    23    24   ar
    33    24    25    1
    34    24    26   ar
    35    26    20   ar
    36     6     1   ar
    37    16     7   ar
    38    34    29    1
    39    15    10   ar
    40    17    18    1
    41    27    28    1
    42    39    40    1
    43    33    36    1
    44    35    37    1
@<TRIPOS>MOLECULE
*****
 40 44 0 0 0
SMALL
GASTEIGER

@<TRIPOS>ATOM
      1 C          63.9991   89.1129   14.3138 C.ar    1  UNL1        0.2218
      2 N          64.5173   88.0643   15.2528 N.ar    1  UNL1       -0.2119
      3 C          64.3662   86.6114   14.9118 C.ar    1  UNL1        0.1061
      4 C          63.6969   86.2072   13.6317 C.ar    1  UNL1        0.0683
      5 C          63.1787   87.2559   12.6927 C.ar    1  UNL1        0.1343
      6 N          63.3298   88.7088   13.0337 N.ar    1  UNL1       -0.1988
      7 C          63.5458   84.7543   13.2906 C.ar    1  UNL1        0.0854
      8 C          64.3976   84.1433   12.2177 C.ar    1  UNL1        0.0193
      9 C          64.2465   82.6905   11.8765 C.ar    1  UNL1        0.0030
     10 C          63.2436   81.8486   12.6084 C.ar    1  UNL1        0.0177
     11 C          63.0925   80.3958   12.2672 C.ar    1  UNL1        0.0015
     12 C          62.0897   79.5539   12.9991 C.ar    1  UNL1        0.0001
     13 C          61.2379   80.1649   14.0720 C.ar    1  UNL1        0.0015
     14 C          61.3890   81.6178   14.4131 C.ar    1  UNL1        0.0191
     15 C          62.3918   82.4596   13.6813 C.ar    1  UNL1        0.0813
     16 N          62.5430   83.9125   14.0224 N.ar    1  UNL1       -0.2452
     17 N          64.1503   90.5658   14.6549 N.pl3   1  UNL1       -0.2824
     18 H          63.5176   90.9941   15.2758 H       1  UNL1        0.1551
     19 C          68.9051   92.6333   14.9972 C.3     1  UNL1        0.0521
     20 C          67.6429   92.3999   14.2212 C.ar    1  UNL1        0.0602
     21 C          66.5277   91.5995   14.8261 C.ar    1  UNL1        0.0294
     22 C          65.2654   91.3662   14.0500 C.ar    1  UNL1        0.0528
     23 C          65.1183   91.9331   12.6691 C.ar    1  UNL1        0.0294
     24 C          66.2335   92.7334   12.0642 C.ar    1  UNL1        0.0602
     25 C          66.0864   93.3004   10.6833 C.3     1  UNL1        0.0521
     26 N          67.4957   92.9668   12.8402 N.ar    1  UNL1       -0.2539
     27 N          62.5094   86.8517   11.4126 N.pl3   1  UNL1       -0.3172
     28 H          62.6603   85.9527   11.0407 H       1  UNL1        0.1482
     29 C          61.6101   87.8172   10.6990 C.3     1  UNL1        0.0998
     30 C          61.1775   87.7248    9.2658 C.3     1  UNL1        0.0271
     31 C          60.2856   88.8951    8.9744 C.3     1  UNL1        0.0604
     32 C          60.1670   89.7108   10.2277 C.3     1  UNL1        0.1412
     33 O          59.3697   90.9713   10.3871 O.3     1  UNL1       -0.3818
     34 C          60.9856   89.0446   11.2935 C.3     1  UNL1        0.1549
     35 O          61.1506   89.5220   12.7059 O.3     1  UNL1       -0.3803
     36 H          59.4616   91.2993   11.2953 H       1  UNL1        0.2104
     37 H          60.6424   90.3384   12.8327 H       1  UNL1        0.2105
     38 C          59.6279   89.1968    7.6605 C.3     1  UNL1        0.1396
     39 O          58.5991   88.2578    7.1037 O.3     1  UNL1       -0.3819
     40 H          59.0190   87.4113    6.8845 H       1  UNL1        0.2104
@<TRIPOS>BOND
     1    19    20    1
     2    20    21   ar
     3    21    22   ar
     4    22    17    1
     5    17     1    1
     6     1     2   ar
     7     2     3   ar
     8     3     4   ar
     9     4     7    1
    10     7     8   ar
    11     8     9   ar
    12     9    10   ar
    13    10    11   ar
    14    11    12   ar
    15    12    13   ar
    16    13    14   ar
    17    14    15   ar
    18    15    16   ar
    19     4     5   ar
    20     5    27    1
    21    29    27    1
    22    29    30    1
    23    30    31    1
    24    31    38    1
    25    38    39    1
    26    31    32    1
    27    32    33    1
    28    32    34    1
    29    34    35    1
    30     5     6   ar
    31    22    23   ar
    32    23    24   ar
    33    24    25    1
    34    24    26   ar
    35    26    20   ar
    36     6     1   ar
    37    16     7   ar
    38    34    29    1
    39    15    10   ar
    40    17    18    1
    41    27    28    1
    42    39    40    1
    43    33    36    1
    44    35    37    1
@<TRIPOS>MOLECULE
*****
 40 44 0 0 0
SMALL
GASTEIGER

@<TRIPOS>ATOM
      1 C          63.0375   86.2292   14.1177 C.ar    1  UNL1        0.2218
      2 N          63.9453   86.8251   15.1525 N.ar    1  UNL1       -0.2119
      3 C          64.5130   88.1987   14.9506 C.ar    1  UNL1        0.1061
      4 C          64.1729   88.9765   13.7140 C.ar    1  UNL1        0.0683
      5 C          63.2651   88.3806   12.6792 C.ar    1  UNL1        0.1343
      6 N          62.6974   87.0070   12.8810 N.ar    1  UNL1       -0.1988
      7 C          64.7406   90.3502   13.5121 C.ar    1  UNL1        0.0854
      8 C          65.4169   91.0568   14.6493 C.ar    1  UNL1        0.0193
      9 C          65.9846   92.4305   14.4475 C.ar    1  UNL1        0.0030
     10 C          65.8760   93.0976   13.1083 C.ar    1  UNL1        0.0177
     11 C          66.4437   94.4712   12.9065 C.ar    1  UNL1        0.0015
     12 C          66.3350   95.1383   11.5674 C.ar    1  UNL1        0.0001
     13 C          65.6587   94.4317   10.4302 C.ar    1  UNL1        0.0015
     14 C          65.0910   93.0581   10.6320 C.ar    1  UNL1        0.0191
     15 C          65.1996   92.3910   11.9711 C.ar    1  UNL1        0.0813
     16 N          64.6319   91.0173   12.1730 N.ar    1  UNL1       -0.2452
     17 N          62.4698   84.8555   14.3196 N.pl3   1  UNL1       -0.2824
     18 H          61.9263   84.6597   15.1168 H       1  UNL1        0.1551
     19 C          64.0856   83.4202    9.5942 C.3     1  UNL1        0.0521
     20 C          63.5382   83.0624   10.9441 C.ar    1  UNL1        0.0602
     21 C          63.2777   84.1379   11.9569 C.ar    1  UNL1        0.0294
     22 C          62.7303   83.7801   13.3068 C.ar    1  UNL1        0.0528
     23 C          62.4433   82.3470   13.6440 C.ar    1  UNL1        0.0294
     24 C          62.7037   81.2715   12.6312 C.ar    1  UNL1        0.0602
     25 C          62.4167   79.8384   12.9684 C.3     1  UNL1        0.0521
     26 N          63.2511   81.6293   11.2813 N.ar    1  UNL1       -0.2539
     27 N          62.9250   89.1585   11.4425 N.pl3   1  UNL1       -0.3172
     28 H          63.2675   90.0743   11.3272 H       1  UNL1        0.1482
     29 C          62.0631   88.5410   10.3814 C.3     1  UNL1        0.0998
     30 C          62.2447   87.1788    9.7802 C.3     1  UNL1        0.0271
     31 C          61.1621   86.9731    8.7625 C.3     1  UNL1        0.0604
     32 C          60.3114   88.2082    8.7348 C.3     1  UNL1        0.1412
     33 O          59.1140   88.4347    7.8601 O.3     1  UNL1       -0.3818
     34 C          60.8682   89.1772    9.7353 C.3     1  UNL1        0.1549
     35 O          60.3255   90.5427   10.0368 O.3     1  UNL1       -0.3803
     36 H          58.7452   89.3140    8.0381 H       1  UNL1        0.2104
     37 H          59.5484   90.7116    9.4813 H       1  UNL1        0.2105
     38 C          60.9649   85.7476    7.9205 C.3     1  UNL1        0.1396
     39 O          59.6480   85.5065    7.2439 O.3     1  UNL1       -0.3819
     40 H          58.9632   85.3550    7.9139 H       1  UNL1        0.2104
@<TRIPOS>BOND
     1    19    20    1
     2    20    21   ar
     3    21    22   ar
     4    22    17    1
     5    17     1    1
     6     1     2   ar
     7     2     3   ar
     8     3     4   ar
     9     4     7    1
    10     7     8   ar
    11     8     9   ar
    12     9    10   ar
    13    10    11   ar
    14    11    12   ar
    15    12    13   ar
    16    13    14   ar
    17    14    15   ar
    18    15    16   ar
    19     4     5   ar
    20     5    27    1
    21    29    27    1
    22    29    30    1
    23    30    31    1
    24    31    38    1
    25    38    39    1
    26    31    32    1
    27    32    33    1
    28    32    34    1
    29    34    35    1
    30     5     6   ar
    31    22    23   ar
    32    23    24   ar
    33    24    25    1
    34    24    26   ar
    35    26    20   ar
    36     6     1   ar
    37    16     7   ar
    38    34    29    1
    39    15    10   ar
    40    17    18    1
    41    27    28    1
    42    39    40    1
    43    33    36    1
    44    35    37    1
@<TRIPOS>MOLECULE
*****
 40 44 0 0 0
SMALL
GASTEIGER

@<TRIPOS>ATOM
      1 C          63.0358   86.2269   14.1168 C.ar    1  UNL1        0.2218
      2 N          63.9449   86.8225   15.1506 N.ar    1  UNL1       -0.2119
      3 C          64.5126   88.1960   14.9483 C.ar    1  UNL1        0.1061
      4 C          64.1712   88.9740   13.7121 C.ar    1  UNL1        0.0683
      5 C          63.2621   88.3784   12.6783 C.ar    1  UNL1        0.1343
      6 N          62.6944   87.0048   12.8806 N.ar    1  UNL1       -0.1988
      7 C          64.7389   90.3476   13.5097 C.ar    1  UNL1        0.0854
      8 C          65.4161   91.0542   14.6464 C.ar    1  UNL1        0.0193
      9 C          65.9838   92.4278   14.4440 C.ar    1  UNL1        0.0030
     10 C          65.8743   93.0948   13.1049 C.ar    1  UNL1        0.0177
     11 C          66.4420   94.4684   12.9026 C.ar    1  UNL1        0.0015
     12 C          66.3324   95.1354   11.5635 C.ar    1  UNL1        0.0001
     13 C          65.6552   94.4288   10.4268 C.ar    1  UNL1        0.0015
     14 C          65.0875   93.0552   10.6292 C.ar    1  UNL1        0.0191
     15 C          65.1971   92.3882   11.9682 C.ar    1  UNL1        0.0813
     16 N          64.6293   91.0146   12.1706 N.ar    1  UNL1       -0.2452
     17 N          62.4681   84.8532   14.3192 N.pl3   1  UNL1       -0.2824
     18 H          61.9239   84.6580   15.1161 H       1  UNL1        0.1551
     19 C          62.4155   79.8352   12.9712 C.3     1  UNL1        0.0521
     20 C          62.7031   81.2681   12.6335 C.ar    1  UNL1        0.0602
     21 C          62.4418   82.3442   13.6452 C.ar    1  UNL1        0.0294
     22 C          62.7294   83.7771   13.3074 C.ar    1  UNL1        0.0528
     23 C          63.2785   84.1339   11.9579 C.ar    1  UNL1        0.0294
     24 C          63.5399   83.0578   10.9462 C.ar    1  UNL1        0.0602
     25 C          64.0889   83.4145    9.5966 C.3     1  UNL1        0.0521
     26 N          63.2522   81.6249   11.2839 N.ar    1  UNL1       -0.2539
     27 N          62.9207   89.1564   11.4420 N.pl3   1  UNL1       -0.3172
     28 H          63.2614   90.0729   11.3275 H       1  UNL1        0.1482
     29 C          62.0604   88.5379   10.3803 C.3     1  UNL1        0.0998
     30 C          62.2397   87.1731    9.7844 C.3     1  UNL1        0.0271
     31 C          61.1598   86.9672    8.7639 C.3     1  UNL1        0.0604
     32 C          60.3130   88.2049    8.7291 C.3     1  UNL1        0.1412
     33 O          59.1192   88.4320    7.8497 O.3     1  UNL1       -0.3818
     34 C          60.8696   89.1755    9.7281 C.3     1  UNL1        0.1549
     35 O          60.3301   90.5437   10.0231 O.3     1  UNL1       -0.3803
     36 H          58.7526   89.3130    8.0235 H       1  UNL1        0.2104
     37 H          59.5554   90.7132    9.4645 H       1  UNL1        0.2105
     38 C          60.9615   85.7394    7.9254 C.3     1  UNL1        0.1396
     39 O          59.6505   85.5066    7.2347 O.3     1  UNL1       -0.3819
     40 H          58.9567   85.3644    7.8975 H       1  UNL1        0.2104
@<TRIPOS>BOND
     1    19    20    1
     2    20    21   ar
     3    21    22   ar
     4    22    17    1
     5    17     1    1
     6     1     2   ar
     7     2     3   ar
     8     3     4   ar
     9     4     7    1
    10     7     8   ar
    11     8     9   ar
    12     9    10   ar
    13    10    11   ar
    14    11    12   ar
    15    12    13   ar
    16    13    14   ar
    17    14    15   ar
    18    15    16   ar
    19     4     5   ar
    20     5    27    1
    21    29    27    1
    22    29    30    1
    23    30    31    1
    24    31    38    1
    25    38    39    1
    26    31    32    1
    27    32    33    1
    28    32    34    1
    29    34    35    1
    30     5     6   ar
    31    22    23   ar
    32    23    24   ar
    33    24    25    1
    34    24    26   ar
    35    26    20   ar
    36     6     1   ar
    37    16     7   ar
    38    34    29    1
    39    15    10   ar
    40    17    18    1
    41    27    28    1
    42    39    40    1
    43    33    36    1
    44    35    37    1
@<TRIPOS>MOLECULE
*****
 40 44 0 0 0
SMALL
GASTEIGER

@<TRIPOS>ATOM
      1 C          61.9991   88.3223   10.8355 C.ar    1  UNL1        0.2218
      2 N          62.1784   89.7995   10.6462 N.ar    1  UNL1       -0.2119
      3 C          63.0257   90.5811   11.6059 C.ar    1  UNL1        0.1061
      4 C          63.6937   89.8856   12.7548 C.ar    1  UNL1        0.0683
      5 C          63.5144   88.4084   12.9440 C.ar    1  UNL1        0.1343
      6 N          62.6670   87.6268   11.9844 N.ar    1  UNL1       -0.1988
      7 C          64.5411   90.6672   13.7146 C.ar    1  UNL1        0.0854
      8 C          63.9793   91.0876   15.0404 C.ar    1  UNL1        0.0193
      9 C          64.8266   91.8692   16.0001 C.ar    1  UNL1        0.0030
     10 C          66.2357   92.2305   15.6341 C.ar    1  UNL1        0.0177
     11 C          67.0830   93.0121   16.5939 C.ar    1  UNL1        0.0015
     12 C          68.4921   93.3733   16.2278 C.ar    1  UNL1        0.0001
     13 C          69.0538   92.9530   14.9020 C.ar    1  UNL1        0.0015
     14 C          68.2065   92.1714   13.9423 C.ar    1  UNL1        0.0191
     15 C          66.7975   91.8101   14.3083 C.ar    1  UNL1        0.0813
     16 N          65.9501   91.0285   13.3486 N.ar    1  UNL1       -0.2452
     17 N          61.1517   87.5406    9.8757 N.pl3   1  UNL1       -0.2824
     18 H          60.2250   87.8205    9.6966 H       1  UNL1        0.1551
     19 C          61.5142   84.5158    5.6663 C.3     1  UNL1        0.0521
     20 C          61.8976   84.8201    7.0842 C.ar    1  UNL1        0.0602
     21 C          61.3329   86.0282    7.7710 C.ar    1  UNL1        0.0294
     22 C          61.7164   86.3326    9.1889 C.ar    1  UNL1        0.0528
     23 C          62.6644   85.4288    9.9199 C.ar    1  UNL1        0.0294
     24 C          63.2290   84.2207    9.2331 C.ar    1  UNL1        0.0602
     25 C          64.1771   83.3170    9.9642 C.3     1  UNL1        0.0521
     26 N          62.8457   83.9164    7.8153 N.ar    1  UNL1       -0.2539
     27 N          64.1824   87.7129   14.0930 N.pl3   1  UNL1       -0.3172
     28 H          64.8100   88.2061   14.6693 H       1  UNL1        0.1482
     29 C          63.8941   86.2660   14.3639 C.3     1  UNL1        0.0998
     30 C          64.1976   85.1195   13.4454 C.3     1  UNL1        0.0271
     31 C          63.7429   83.8565   14.1146 C.3     1  UNL1        0.0604
     32 C          63.1582   84.2223   15.4467 C.3     1  UNL1        0.1412
     33 O          62.5814   83.2667   16.4488 O.3     1  UNL1       -0.3818
     34 C          63.2517   85.7114   15.6007 C.3     1  UNL1        0.1549
     35 O          62.7848   86.5064   16.7839 O.3     1  UNL1       -0.3803
     36 H          62.2720   83.7597   17.2248 H       1  UNL1        0.2104
     37 H          62.4069   85.9077   17.4470 H       1  UNL1        0.2105
     38 C          63.8533   82.4709   13.5508 C.3     1  UNL1        0.1396
     39 O          63.3995   81.2930   14.3611 O.3     1  UNL1       -0.3819
     40 H          63.9699   81.1973   15.1399 H       1  UNL1        0.2104
@<TRIPOS>BOND
     1    19    20    1
     2    20    21   ar
     3    21    22   ar
     4    22    17    1
     5    17     1    1
     6     1     2   ar
     7     2     3   ar
     8     3     4   ar
     9     4     7    1
    10     7     8   ar
    11     8     9   ar
    12     9    10   ar
    13    10    11   ar
    14    11    12   ar
    15    12    13   ar
    16    13    14   ar
    17    14    15   ar
    18    15    16   ar
    19     4     5   ar
    20     5    27    1
    21    29    27    1
    22    29    30    1
    23    30    31    1
    24    31    38    1
    25    38    39    1
    26    31    32    1
    27    32    33    1
    28    32    34    1
    29    34    35    1
    30     5     6   ar
    31    22    23   ar
    32    23    24   ar
    33    24    25    1
    34    24    26   ar
    35    26    20   ar
    36     6     1   ar
    37    16     7   ar
    38    34    29    1
    39    15    10   ar
    40    17    18    1
    41    27    28    1
    42    39    40    1
    43    33    36    1
    44    35    37    1
@<TRIPOS>MOLECULE
*****
 40 44 0 0 0
SMALL
GASTEIGER

@<TRIPOS>ATOM
      1 C          61.9949   88.3338   10.8453 C.ar    1  UNL1        0.2218
      2 N          62.1736   89.8108   10.6540 N.ar    1  UNL1       -0.2119
      3 C          63.0255   90.5931   11.6090 C.ar    1  UNL1        0.1061
      4 C          63.6989   89.8984   12.7553 C.ar    1  UNL1        0.0683
      5 C          63.5203   88.4214   12.9466 C.ar    1  UNL1        0.1343
      6 N          62.6683   87.6391   11.9916 N.ar    1  UNL1       -0.1988
      7 C          64.5509   90.6807   13.7104 C.ar    1  UNL1        0.0854
      8 C          63.9941   91.1062   15.0366 C.ar    1  UNL1        0.0193
      9 C          64.8460   91.8884   15.9917 C.ar    1  UNL1        0.0030
     10 C          66.2549   92.2453   15.6205 C.ar    1  UNL1        0.0177
     11 C          67.1069   93.0276   16.5755 C.ar    1  UNL1        0.0015
     12 C          68.5157   93.3845   16.2043 C.ar    1  UNL1        0.0001
     13 C          69.0726   92.9591   14.8781 C.ar    1  UNL1        0.0015
     14 C          68.2206   92.1768   13.9230 C.ar    1  UNL1        0.0191
     15 C          66.8118   91.8199   14.2942 C.ar    1  UNL1        0.0813
     16 N          65.9598   91.0376   13.3392 N.ar    1  UNL1       -0.2452
     17 N          61.1429   87.5515    9.8902 N.pl3   1  UNL1       -0.2824
     18 H          60.2149   87.8305    9.7164 H       1  UNL1        0.1551
     19 C          64.1419   83.3089    9.9738 C.3     1  UNL1        0.0521
     20 C          63.2043   84.2228    9.2418 C.ar    1  UNL1        0.0602
     21 C          62.6424   85.4302    9.9321 C.ar    1  UNL1        0.0294
     22 C          61.7048   86.3441    9.2000 C.ar    1  UNL1        0.0528
     23 C          61.3293   86.0506    7.7778 C.ar    1  UNL1        0.0294
     24 C          61.8912   84.8432    7.0875 C.ar    1  UNL1        0.0602
     25 C          61.5157   84.5497    5.6653 C.3     1  UNL1        0.0521
     26 N          62.8287   83.9293    7.8195 N.ar    1  UNL1       -0.2539
     27 N          64.1937   87.7267   14.0929 N.pl3   1  UNL1       -0.3172
     28 H          64.8254   88.2198   14.6647 H       1  UNL1        0.1482
     29 C          63.9046   86.2808   14.3679 C.3     1  UNL1        0.0998
     30 C          64.2044   85.1319   13.4514 C.3     1  UNL1        0.0271
     31 C          63.7500   83.8709   14.1248 C.3     1  UNL1        0.0604
     32 C          63.1692   84.2405   15.4575 C.3     1  UNL1        0.1412
     33 O          62.5939   83.2880   16.4633 O.3     1  UNL1       -0.3818
     34 C          63.2648   85.7299   15.6077 C.3     1  UNL1        0.1549
     35 O          62.8018   86.5282   16.7902 O.3     1  UNL1       -0.3803
     36 H          62.2871   83.7832   17.2389 H       1  UNL1        0.2104
     37 H          62.4249   85.9315   17.4557 H       1  UNL1        0.2105
     38 C          63.8574   82.4839   13.5639 C.3     1  UNL1        0.1396
     39 O          63.3373   81.3155   14.3478 O.3     1  UNL1       -0.3819
     40 H          63.8656   81.2061   15.1538 H       1  UNL1        0.2104
@<TRIPOS>BOND
     1    19    20    1
     2    20    21   ar
     3    21    22   ar
     4    22    17    1
     5    17     1    1
     6     1     2   ar
     7     2     3   ar
     8     3     4   ar
     9     4     7    1
    10     7     8   ar
    11     8     9   ar
    12     9    10   ar
    13    10    11   ar
    14    11    12   ar
    15    12    13   ar
    16    13    14   ar
    17    14    15   ar
    18    15    16   ar
    19     4     5   ar
    20     5    27    1
    21    29    27    1
    22    29    30    1
    23    30    31    1
    24    31    38    1
    25    38    39    1
    26    31    32    1
    27    32    33    1
    28    32    34    1
    29    34    35    1
    30     5     6   ar
    31    22    23   ar
    32    23    24   ar
    33    24    25    1
    34    24    26   ar
    35    26    20   ar
    36     6     1   ar
    37    16     7   ar
    38    34    29    1
    39    15    10   ar
    40    17    18    1
    41    27    28    1
    42    39    40    1
    43    33    36    1
    44    35    37    1
@<TRIPOS>MOLECULE
*****
 40 44 0 0 0
SMALL
GASTEIGER

@<TRIPOS>ATOM
      1 C          63.2806   89.9160   13.4711 C.ar    1  UNL1        0.2218
      2 N          62.3220   90.5315   12.4952 N.ar    1  UNL1       -0.2119
      3 C          61.7818   89.7154   11.3585 C.ar    1  UNL1        0.1061
      4 C          62.2002   88.2840   11.1976 C.ar    1  UNL1        0.0683
      5 C          63.1588   87.6686   12.1735 C.ar    1  UNL1        0.1343
      6 N          63.6990   88.4846   13.3102 N.ar    1  UNL1       -0.1988
      7 C          61.6600   87.4679   10.0608 C.ar    1  UNL1        0.0854
      8 C          60.1944   87.5020    9.7431 C.ar    1  UNL1        0.0193
      9 C          59.6542   86.6860    8.6064 C.ar    1  UNL1        0.0030
     10 C          60.5795   85.8358    7.7873 C.ar    1  UNL1        0.0177
     11 C          60.0393   85.0198    6.6505 C.ar    1  UNL1        0.0015
     12 C          60.9647   84.1697    5.8314 C.ar    1  UNL1        0.0001
     13 C          62.4303   84.1356    6.1491 C.ar    1  UNL1        0.0015
     14 C          62.9705   84.9516    7.2858 C.ar    1  UNL1        0.0191
     15 C          62.0451   85.8017    8.1049 C.ar    1  UNL1        0.0813
     16 N          62.5853   86.6178    9.2417 N.ar    1  UNL1       -0.2452
     17 N          63.8208   90.7321   14.6079 N.pl3   1  UNL1       -0.2824
     18 H          63.3982   90.6802   15.4956 H       1  UNL1        0.1551
     19 C          68.2660   92.8059   16.3225 C.3     1  UNL1        0.0521
     20 C          67.2274   92.6643   15.2495 C.ar    1  UNL1        0.0602
     21 C          66.0434   91.7690   15.4652 C.ar    1  UNL1        0.0294
     22 C          65.0048   91.6274   14.3922 C.ar    1  UNL1        0.0528
     23 C          65.1503   92.3811   13.1035 C.ar    1  UNL1        0.0294
     24 C          66.3343   93.2763   12.8878 C.ar    1  UNL1        0.0602
     25 C          66.4798   94.0300   11.5991 C.3     1  UNL1        0.0521
     26 N          67.3729   93.4179   13.9607 N.ar    1  UNL1       -0.2539
     27 N          63.5772   86.2371   12.0126 N.pl3   1  UNL1       -0.3172
     28 H          64.1300   85.9693   11.2432 H       1  UNL1        0.1482
     29 C          63.1532   85.2136   13.0239 C.3     1  UNL1        0.0998
     30 C          62.5781   83.8615   12.7222 C.3     1  UNL1        0.0271
     31 C          62.2993   83.1748   14.0263 C.3     1  UNL1        0.0604
     32 C          62.7022   84.1025   15.1340 C.3     1  UNL1        0.1412
     33 O          62.5960   83.8198   16.6033 O.3     1  UNL1       -0.3818
     34 C          63.2299   85.3625   14.5145 C.3     1  UNL1        0.1549
     35 O          63.7440   86.5611   15.2555 O.3     1  UNL1       -0.3803
     36 H          62.9237   84.5832   17.1040 H       1  UNL1        0.2104
     37 H          63.6849   86.4008   16.2104 H       1  UNL1        0.2105
     38 C          61.7196   81.8015   14.1933 C.3     1  UNL1        0.1396
     39 O          62.5937   80.6677   14.6410 O.3     1  UNL1       -0.3819
     40 H          63.2572   80.4819   13.9583 H       1  UNL1        0.2104
@<TRIPOS>BOND
     1    19    20    1
     2    20    21   ar
     3    21    22   ar
     4    22    17    1
     5    17     1    1
     6     1     2   ar
     7     2     3   ar
     8     3     4   ar
     9     4     7    1
    10     7     8   ar
    11     8     9   ar
    12     9    10   ar
    13    10    11   ar
    14    11    12   ar
    15    12    13   ar
    16    13    14   ar
    17    14    15   ar
    18    15    16   ar
    19     4     5   ar
    20     5    27    1
    21    29    27    1
    22    29    30    1
    23    30    31    1
    24    31    38    1
    25    38    39    1
    26    31    32    1
    27    32    33    1
    28    32    34    1
    29    34    35    1
    30     5     6   ar
    31    22    23   ar
    32    23    24   ar
    33    24    25    1
    34    24    26   ar
    35    26    20   ar
    36     6     1   ar
    37    16     7   ar
    38    34    29    1
    39    15    10   ar
    40    17    18    1
    41    27    28    1
    42    39    40    1
    43    33    36    1
    44    35    37    1
@<TRIPOS>MOLECULE
*****
 40 44 0 0 0
SMALL
GASTEIGER

@<TRIPOS>ATOM
      1 C          61.4366   88.9445   11.5292 C.ar    1  UNL1        0.2218
      2 N          61.6021   90.3476   11.0252 N.ar    1  UNL1       -0.2119
      3 C          62.7302   91.1976   11.5298 C.ar    1  UNL1        0.1061
      4 C          63.6929   90.6446   12.5384 C.ar    1  UNL1        0.0683
      5 C          63.5274   89.2415   13.0424 C.ar    1  UNL1        0.1343
      6 N          62.3993   88.3915   12.5378 N.ar    1  UNL1       -0.1988
      7 C          64.8211   91.4946   13.0431 C.ar    1  UNL1        0.0854
      8 C          65.2018   92.7473   12.3111 C.ar    1  UNL1        0.0193
      9 C          66.3300   93.5974   12.8157 C.ar    1  UNL1        0.0030
     10 C          67.0775   93.1947   14.0523 C.ar    1  UNL1        0.0177
     11 C          68.2056   94.0447   14.5569 C.ar    1  UNL1        0.0015
     12 C          68.9531   93.6420   15.7935 C.ar    1  UNL1        0.0001
     13 C          68.5724   92.3893   16.5254 C.ar    1  UNL1        0.0015
     14 C          67.4443   91.5393   16.0208 C.ar    1  UNL1        0.0191
     15 C          66.6968   91.9420   14.7843 C.ar    1  UNL1        0.0813
     16 N          65.5686   91.0919   14.2796 N.ar    1  UNL1       -0.2452
     17 N          60.3084   88.0944   11.0245 N.pl3   1  UNL1       -0.2824
     18 H          59.6617   87.7078   11.6582 H       1  UNL1        0.1551
     19 C          59.0265   89.7410    6.2658 C.3     1  UNL1        0.0521
     20 C          59.5245   88.6568    7.1749 C.ar    1  UNL1        0.0602
     21 C          59.6674   88.9177    8.6451 C.ar    1  UNL1        0.0294
     22 C          60.1654   87.8335    9.5543 C.ar    1  UNL1        0.0528
     23 C          60.5205   86.4885    8.9933 C.ar    1  UNL1        0.0294
     24 C          60.3776   86.2276    7.5231 C.ar    1  UNL1        0.0602
     25 C          60.7326   84.8826    6.9621 C.3     1  UNL1        0.0521
     26 N          59.8796   87.3117    6.6139 N.ar    1  UNL1       -0.2539
     27 N          64.4902   88.6885   14.0511 N.pl3   1  UNL1       -0.3172
     28 H          65.3607   89.1261   14.1922 H       1  UNL1        0.1482
     29 C          64.1266   87.4686   14.8447 C.3     1  UNL1        0.0998
     30 C          64.3788   86.0463   14.4405 C.3     1  UNL1        0.0271
     31 C          63.8550   85.1556   15.5278 C.3     1  UNL1        0.0604
     32 C          63.2791   86.0274   16.6040 C.3     1  UNL1        0.1412
     33 O          62.6463   85.5530   17.8786 O.3     1  UNL1       -0.3818
     34 C          63.4469   87.4569   16.1818 C.3     1  UNL1        0.1549
     35 O          63.0115   88.6630   16.9601 O.3     1  UNL1       -0.3803
     36 H          62.3562   86.3179   18.3998 H       1  UNL1        0.2104
     37 H          62.5983   88.3799   17.7908 H       1  UNL1        0.2105
     38 C          63.8994   83.6563   15.5373 C.3     1  UNL1        0.1396
     39 O          62.6232   82.8682   15.5473 O.3     1  UNL1       -0.3819
     40 H          62.1547   83.0220   16.3826 H       1  UNL1        0.2104
@<TRIPOS>BOND
     1    19    20    1
     2    20    21   ar
     3    21    22   ar
     4    22    17    1
     5    17     1    1
     6     1     2   ar
     7     2     3   ar
     8     3     4   ar
     9     4     7    1
    10     7     8   ar
    11     8     9   ar
    12     9    10   ar
    13    10    11   ar
    14    11    12   ar
    15    12    13   ar
    16    13    14   ar
    17    14    15   ar
    18    15    16   ar
    19     4     5   ar
    20     5    27    1
    21    29    27    1
    22    29    30    1
    23    30    31    1
    24    31    38    1
    25    38    39    1
    26    31    32    1
    27    32    33    1
    28    32    34    1
    29    34    35    1
    30     5     6   ar
    31    22    23   ar
    32    23    24   ar
    33    24    25    1
    34    24    26   ar
    35    26    20   ar
    36     6     1   ar
    37    16     7   ar
    38    34    29    1
    39    15    10   ar
    40    17    18    1
    41    27    28    1
    42    39    40    1
    43    33    36    1
    44    35    37    1
@<TRIPOS>MOLECULE
*****
 40 44 0 0 0
SMALL
GASTEIGER

@<TRIPOS>ATOM
      1 C          62.9437   85.4630   14.2394 C.ar    1  UNL1        0.2218
      2 N          63.7742   86.1877   15.2568 N.ar    1  UNL1       -0.2119
      3 C          64.2578   87.5796   14.9763 C.ar    1  UNL1        0.1061
      4 C          63.9109   88.2468   13.6785 C.ar    1  UNL1        0.0683
      5 C          63.0804   87.5221   12.6611 C.ar    1  UNL1        0.1343
      6 N          62.5968   86.1302   12.9415 N.ar    1  UNL1       -0.1988
      7 C          64.3945   89.6388   13.3980 C.ar    1  UNL1        0.0854
      8 C          63.9493   90.3513   12.1553 C.ar    1  UNL1        0.0193
      9 C          64.4329   91.7432   11.8748 C.ar    1  UNL1        0.0030
     10 C          65.3616   92.4227   12.8370 C.ar    1  UNL1        0.0177
     11 C          65.8451   93.8146   12.5565 C.ar    1  UNL1        0.0015
     12 C          66.7738   94.4941   13.5187 C.ar    1  UNL1        0.0001
     13 C          67.2189   93.7817   14.7614 C.ar    1  UNL1        0.0015
     14 C          66.7354   92.3898   15.0419 C.ar    1  UNL1        0.0191
     15 C          65.8067   91.7103   14.0797 C.ar    1  UNL1        0.0813
     16 N          65.3231   90.3183   14.3602 N.ar    1  UNL1       -0.2452
     17 N          62.4602   84.0710   14.5199 N.pl3   1  UNL1       -0.2824
     18 H          61.9869   83.8744   15.3604 H       1  UNL1        0.1551
     19 C          62.1726   79.0601   13.1752 C.3     1  UNL1        0.0521
     20 C          62.5539   80.4733   12.8473 C.ar    1  UNL1        0.0602
     21 C          62.3163   81.5655   13.8476 C.ar    1  UNL1        0.0294
     22 C          62.6977   82.9787   13.5196 C.ar    1  UNL1        0.0528
     23 C          63.3166   83.2996   12.1915 C.ar    1  UNL1        0.0294
     24 C          63.5542   82.2073   11.1913 C.ar    1  UNL1        0.0602
     25 C          64.1731   82.5282    9.8631 C.3     1  UNL1        0.0521
     26 N          63.1729   80.7942   11.5191 N.ar    1  UNL1       -0.2539
     27 N          62.7335   88.1894   11.3632 N.pl3   1  UNL1       -0.3172
     28 H          62.9287   89.1457   11.2337 H       1  UNL1        0.1482
     29 C          62.0892   87.3998   10.2626 C.3     1  UNL1        0.0998
     30 C          62.7981   86.5132    9.2821 C.3     1  UNL1        0.0271
     31 C          61.7699   85.9235    8.3628 C.3     1  UNL1        0.0604
     32 C          60.4255   86.4456    8.7752 C.3     1  UNL1        0.1412
     33 O          59.1140   86.1136    8.1272 O.3     1  UNL1       -0.3818
     34 C          60.6229   87.3580    9.9493 C.3     1  UNL1        0.1549
     35 O          59.5434   88.0985   10.6816 O.3     1  UNL1       -0.3803
     36 H          58.3992   86.5826    8.5854 H       1  UNL1        0.2104
     37 H          58.6838   87.8986   10.2790 H       1  UNL1        0.2105
     38 C          62.0389   84.9778    7.2300 C.3     1  UNL1        0.1396
     39 O          60.9522   84.6563    6.2473 O.3     1  UNL1       -0.3819
     40 H          60.2419   84.1726    6.6974 H       1  UNL1        0.2104
@<TRIPOS>BOND
     1    19    20    1
     2    20    21   ar
     3    21    22   ar
     4    22    17    1
     5    17     1    1
     6     1     2   ar
     7     2     3   ar
     8     3     4   ar
     9     4     7    1
    10     7     8   ar
    11     8     9   ar
    12     9    10   ar
    13    10    11   ar
    14    11    12   ar
    15    12    13   ar
    16    13    14   ar
    17    14    15   ar
    18    15    16   ar
    19     4     5   ar
    20     5    27    1
    21    29    27    1
    22    29    30    1
    23    30    31    1
    24    31    38    1
    25    38    39    1
    26    31    32    1
    27    32    33    1
    28    32    34    1
    29    34    35    1
    30     5     6   ar
    31    22    23   ar
    32    23    24   ar
    33    24    25    1
    34    24    26   ar
    35    26    20   ar
    36     6     1   ar
    37    16     7   ar
    38    34    29    1
    39    15    10   ar
    40    17    18    1
    41    27    28    1
    42    39    40    1
    43    33    36    1
    44    35    37    1
