@<TRIPOS>MOLECULE
*****
 37 40 0 0 0
SMALL
GASTEIGER

@<TRIPOS>ATOM
      1 N          63.1982   89.1914   12.8871 N.ar    1  UNL1       -0.2470
      2 C          62.3145   89.1068   11.6780 C.ar    1  UNL1        0.2657
      3 O          61.7068   90.3525   11.1046 O.2     1  UNL1       -0.2668
      4 C          62.0387   87.7765   11.0424 C.ar    1  UNL1        0.0736
      5 C          62.6465   86.5308   11.6158 C.ar    1  UNL1        0.0847
      6 N          63.5301   86.6154   12.8249 N.ar    1  UNL1       -0.2755
      7 C          63.8059   87.9457   13.4606 C.ar    1  UNL1        0.3341
      8 O          64.6896   88.0304   14.6698 O.2     1  UNL1       -0.2462
      9 C          61.1550   87.6918    9.8332 C.ar    1  UNL1        0.0060
     10 C          60.6153   88.9447    9.2095 C.ar    1  UNL1        0.0002
     11 C          59.7317   88.8601    8.0004 C.ar    1  UNL1        0.0000
     12 C          59.3877   87.5226    7.4149 C.ar    1  UNL1        0.0000
     13 C          59.9275   86.2697    8.0385 C.ar    1  UNL1        0.0000
     14 C          60.8111   86.3543    9.2477 C.ar    1  UNL1        0.0002
     15 C          63.4741   90.5218   13.5229 C.3     1  UNL1        0.1334
     16 N          64.6195   91.8186   11.5848 N.3     1  UNL1       -0.3172
     17 C          64.5992   91.3755   13.0177 C.3     1  UNL1        0.0968
     18 H          63.7987   91.4510   11.1036 H       1  UNL1        0.1192
     19 H          65.4640   91.4683   11.1326 H       1  UNL1        0.1192
     20 C          65.7040   91.7862   13.9455 C.ar    1  UNL1       -0.0063
     21 C          65.4009   92.0983   15.3810 C.ar    1  UNL1       -0.0029
     22 C          66.5057   92.5089   16.3087 C.ar    1  UNL1       -0.0003
     23 C          67.9137   92.6076   15.8009 C.ar    1  UNL1       -0.0000
     24 C          68.2168   92.2955   14.3654 C.ar    1  UNL1       -0.0003
     25 C          67.1120   91.8849   13.4377 C.ar    1  UNL1       -0.0029
     26 C          64.1378   85.3697   13.3984 C.3     1  UNL1        0.1394
     27 C          63.4095   84.0627   13.2928 C.ar    1  UNL1        0.0319
     28 C          63.4845   83.2624   12.0262 C.ar    1  UNL1        0.1379
     29 F          64.2878   83.7693   10.8653 F       1  UNL1       -0.2044
     30 C          62.7562   81.9554   11.9207 C.ar    1  UNL1        0.0294
     31 C          61.9529   81.4485   13.0816 C.ar    1  UNL1        0.0022
     32 C          61.8779   82.2487   14.3481 C.ar    1  UNL1        0.0037
     33 C          62.6062   83.5558   14.4537 C.ar    1  UNL1        0.0714
     34 C          62.5312   84.3559   15.7202 C.3     1  UNL1        0.4184
     35 F          62.4562   85.1561   16.9867 F       1  UNL1       -0.1659
     36 F          61.1320   84.7715   15.3749 F       1  UNL1       -0.1659
     37 F          63.9305   83.9404   16.0656 F       1  UNL1       -0.1659
@<TRIPOS>BOND
     1    17    16    1
     2    17    15    1
     3    15     1    1
     4     1     2   ar
     5     2     3    2
     6     2     4   ar
     7     4     9    1
     8     9    10   ar
     9    10    11   ar
    10    11    12   ar
    11    12    13   ar
    12    13    14   ar
    13     4     5   ar
    14     5     6   ar
    15     6    26    1
    16    26    27    1
    17    27    28   ar
    18    28    29    1
    19    28    30   ar
    20    30    31   ar
    21    31    32   ar
    22    32    33   ar
    23    33    34    1
    24    34    35    1
    25    34    36    1
    26    34    37    1
    27     6     7   ar
    28     7     8    2
    29    17    20    1
    30    20    21   ar
    31    21    22   ar
    32    22    23   ar
    33    23    24   ar
    34    24    25   ar
    35     7     1   ar
    36    25    20   ar
    37    14     9   ar
    38    33    27   ar
    39    16    18    1
    40    16    19    1
@<TRIPOS>MOLECULE
*****
 37 40 0 0 0
SMALL
GASTEIGER

@<TRIPOS>ATOM
      1 N          63.1781   89.0220   12.9551 N.ar    1  UNL1       -0.2470
      2 C          62.2923   88.9895   11.7451 C.ar    1  UNL1        0.2657
      3 O          61.6854   90.2591   11.2256 O.2     1  UNL1       -0.2668
      4 C          62.0132   87.6875   11.0547 C.ar    1  UNL1        0.0736
      5 C          62.6201   86.4179   11.5742 C.ar    1  UNL1        0.0847
      6 N          63.5060   86.4504   12.7842 N.ar    1  UNL1       -0.2755
      7 C          63.7850   87.7524   13.4747 C.ar    1  UNL1        0.3341
      8 O          64.6709   87.7850   14.6847 O.2     1  UNL1       -0.2462
      9 C          61.1273   87.6549    9.8446 C.ar    1  UNL1        0.0060
     10 C          60.7489   86.3413    9.2273 C.ar    1  UNL1        0.0002
     11 C          59.8630   86.3087    8.0173 C.ar    1  UNL1        0.0000
     12 C          59.3555   87.5898    7.4246 C.ar    1  UNL1        0.0000
     13 C          59.7340   88.9035    8.0419 C.ar    1  UNL1        0.0000
     14 C          60.6199   88.9360    9.2520 C.ar    1  UNL1        0.0002
     15 C          63.4572   90.3241   13.6457 C.3     1  UNL1        0.1334
     16 N          64.4817   91.6993   11.6940 N.3     1  UNL1       -0.3172
     17 C          64.5246   91.2378   13.1206 C.3     1  UNL1        0.0968
     18 H          63.6659   91.2984   11.2313 H       1  UNL1        0.1192
     19 H          65.3286   91.3963   11.2130 H       1  UNL1        0.1192
     20 C          65.6350   91.6900   14.0221 C.ar    1  UNL1       -0.0063
     21 C          65.3460   92.0345   15.4531 C.ar    1  UNL1       -0.0029
     22 C          66.4564   92.4867   16.3546 C.ar    1  UNL1       -0.0003
     23 C          67.8556   92.5943   15.8250 C.ar    1  UNL1       -0.0000
     24 C          68.1446   92.2497   14.3941 C.ar    1  UNL1       -0.0003
     25 C          67.0343   91.7976   13.4926 C.ar    1  UNL1       -0.0029
     26 C          64.1128   85.1808   13.3037 C.3     1  UNL1        0.1394
     27 C          63.2699   83.9477   13.4404 C.ar    1  UNL1        0.0319
     28 C          62.4750   83.7174   14.6915 C.ar    1  UNL1        0.1379
     29 F          62.5232   84.7202   15.8059 F       1  UNL1       -0.2044
     30 C          61.6321   82.4842   14.8282 C.ar    1  UNL1        0.0294
     31 C          61.5839   81.4813   13.7138 C.ar    1  UNL1        0.0022
     32 C          62.3787   81.7116   12.4627 C.ar    1  UNL1        0.0037
     33 C          63.2217   82.9448   12.3260 C.ar    1  UNL1        0.0714
     34 C          64.0165   83.1750   11.0749 C.3     1  UNL1        0.4184
     35 F          64.8113   83.4053    9.8239 F       1  UNL1       -0.1659
     36 F          62.8414   83.8727   10.4567 F       1  UNL1       -0.1659
     37 F          65.1917   82.4774   11.6931 F       1  UNL1       -0.1659
@<TRIPOS>BOND
     1    17    16    1
     2    17    15    1
     3    15     1    1
     4     1     2   ar
     5     2     3    2
     6     2     4   ar
     7     4     9    1
     8     9    10   ar
     9    10    11   ar
    10    11    12   ar
    11    12    13   ar
    12    13    14   ar
    13     4     5   ar
    14     5     6   ar
    15     6    26    1
    16    26    27    1
    17    27    28   ar
    18    28    29    1
    19    28    30   ar
    20    30    31   ar
    21    31    32   ar
    22    32    33   ar
    23    33    34    1
    24    34    35    1
    25    34    36    1
    26    34    37    1
    27     6     7   ar
    28     7     8    2
    29    17    20    1
    30    20    21   ar
    31    21    22   ar
    32    22    23   ar
    33    23    24   ar
    34    24    25   ar
    35     7     1   ar
    36    25    20   ar
    37    14     9   ar
    38    33    27   ar
    39    16    18    1
    40    16    19    1
@<TRIPOS>MOLECULE
*****
 37 40 0 0 0
SMALL
GASTEIGER

@<TRIPOS>ATOM
      1 N          63.4811   86.2213   12.9840 N.ar    1  UNL1       -0.2470
      2 C          62.9977   85.7190   11.6559 C.ar    1  UNL1        0.2657
      3 O          63.0742   84.2559   11.3343 O.2     1  UNL1       -0.2668
      4 C          62.4377   86.6798   10.6493 C.ar    1  UNL1        0.0736
      5 C          62.3611   88.1429   10.9708 C.ar    1  UNL1        0.0847
      6 N          62.8446   88.6452   12.2990 N.ar    1  UNL1       -0.2755
      7 C          63.4045   87.6844   13.3055 C.ar    1  UNL1        0.3341
      8 O          63.8880   88.1867   14.6337 O.2     1  UNL1       -0.2462
      9 C          61.9542   86.1775    9.3211 C.ar    1  UNL1        0.0060
     10 C          62.8930   85.4437    8.4099 C.ar    1  UNL1        0.0002
     11 C          62.4096   84.9414    7.0817 C.ar    1  UNL1        0.0000
     12 C          60.9874   85.1729    6.6648 C.ar    1  UNL1        0.0000
     13 C          60.0486   85.9066    7.5760 C.ar    1  UNL1        0.0000
     14 C          60.5321   86.4090    8.9042 C.ar    1  UNL1        0.0002
     15 C          64.0411   85.2605   13.9906 C.3     1  UNL1        0.1334
     16 N          62.4509   84.9289   16.0182 N.3     1  UNL1       -0.3172
     17 C          63.1183   84.3878   14.7886 C.3     1  UNL1        0.0968
     18 H          62.7356   85.8978   16.1612 H       1  UNL1        0.1192
     19 H          62.7247   84.3711   16.8271 H       1  UNL1        0.1192
     20 C          62.8630   82.9740   14.3572 C.ar    1  UNL1       -0.0063
     21 C          61.4899   82.3854   14.4911 C.ar    1  UNL1       -0.0029
     22 C          61.2346   80.9717   14.0597 C.ar    1  UNL1       -0.0003
     23 C          62.3525   80.1466   13.4942 C.ar    1  UNL1       -0.0000
     24 C          63.7256   80.7353   13.3602 C.ar    1  UNL1       -0.0003
     25 C          63.9809   82.1490   13.7917 C.ar    1  UNL1       -0.0029
     26 C          62.7680   90.1084   12.6205 C.3     1  UNL1        0.1394
     27 C          63.8833   91.0251   12.2134 C.ar    1  UNL1        0.0319
     28 C          64.0096   91.4642   10.7847 C.ar    1  UNL1        0.1379
     29 F          63.0207   90.9865    9.7630 F       1  UNL1       -0.2044
     30 C          65.1249   92.3809   10.3776 C.ar    1  UNL1        0.0294
     31 C          66.1139   92.8586   11.3993 C.ar    1  UNL1        0.0022
     32 C          65.9876   92.4195   12.8280 C.ar    1  UNL1        0.0037
     33 C          64.8723   91.5027   13.2351 C.ar    1  UNL1        0.0714
     34 C          64.7460   91.0637   14.6638 C.3     1  UNL1        0.4184
     35 F          64.6197   90.6247   16.0925 F       1  UNL1       -0.1659
     36 F          63.3645   91.6454   14.7204 F       1  UNL1       -0.1659
     37 F          66.1274   90.4820   14.6072 F       1  UNL1       -0.1659
@<TRIPOS>BOND
     1    17    16    1
     2    17    15    1
     3    15     1    1
     4     1     2   ar
     5     2     3    2
     6     2     4   ar
     7     4     9    1
     8     9    10   ar
     9    10    11   ar
    10    11    12   ar
    11    12    13   ar
    12    13    14   ar
    13     4     5   ar
    14     5     6   ar
    15     6    26    1
    16    26    27    1
    17    27    28   ar
    18    28    29    1
    19    28    30   ar
    20    30    31   ar
    21    31    32   ar
    22    32    33   ar
    23    33    34    1
    24    34    35    1
    25    34    36    1
    26    34    37    1
    27     6     7   ar
    28     7     8    2
    29    17    20    1
    30    20    21   ar
    31    21    22   ar
    32    22    23   ar
    33    23    24   ar
    34    24    25   ar
    35     7     1   ar
    36    25    20   ar
    37    14     9   ar
    38    33    27   ar
    39    16    18    1
    40    16    19    1
@<TRIPOS>MOLECULE
*****
 37 40 0 0 0
SMALL
GASTEIGER

@<TRIPOS>ATOM
      1 N          63.0709   89.0510   12.9574 N.ar    1  UNL1       -0.2470
      2 C          62.2016   88.9996   11.7361 C.ar    1  UNL1        0.2657
      3 O          61.5528   90.2514   11.2242 O.2     1  UNL1       -0.2668
      4 C          61.9811   87.6965   11.0268 C.ar    1  UNL1        0.0736
      5 C          62.6299   86.4447   11.5388 C.ar    1  UNL1        0.0847
      6 N          63.4992   86.4961   12.7601 N.ar    1  UNL1       -0.2755
      7 C          63.7197   87.7992   13.4694 C.ar    1  UNL1        0.3341
      8 O          64.5890   87.8506   14.6908 O.2     1  UNL1       -0.2462
      9 C          61.1117   87.6451    9.8054 C.ar    1  UNL1        0.0060
     10 C          60.6013   88.9162    9.1941 C.ar    1  UNL1        0.0002
     11 C          59.7320   88.8648    7.9728 C.ar    1  UNL1        0.0000
     12 C          59.3731   87.5423    7.3628 C.ar    1  UNL1        0.0000
     13 C          59.8835   86.2712    7.9741 C.ar    1  UNL1        0.0000
     14 C          60.7528   86.3226    9.1955 C.ar    1  UNL1        0.0002
     15 C          63.2914   90.3541   13.6668 C.3     1  UNL1        0.1334
     16 N          65.6304   90.5224   14.7851 N.3     1  UNL1       -0.3172
     17 C          64.6647   90.9550   13.7220 C.3     1  UNL1        0.0968
     18 H          65.1902   89.8194   15.3787 H       1  UNL1        0.1192
     19 H          65.8957   91.3280   15.3517 H       1  UNL1        0.1192
     20 C          65.0723   91.9885   12.7141 C.ar    1  UNL1       -0.0063
     21 C          65.9430   93.1375   13.1282 C.ar    1  UNL1       -0.0029
     22 C          66.3506   94.1709   12.1203 C.ar    1  UNL1       -0.0003
     23 C          65.8873   94.0553   10.6983 C.ar    1  UNL1       -0.0000
     24 C          65.0165   92.9064   10.2842 C.ar    1  UNL1       -0.0003
     25 C          64.6090   91.8729   11.2921 C.ar    1  UNL1       -0.0029
     26 C          64.1480   85.2443   13.2721 C.3     1  UNL1        0.1394
     27 C          63.4163   83.9369   13.2000 C.ar    1  UNL1        0.0319
     28 C          63.4674   83.1170   11.9449 C.ar    1  UNL1        0.1379
     29 F          64.2501   83.6045   10.7619 F       1  UNL1       -0.2044
     30 C          62.7357   81.8095   11.8729 C.ar    1  UNL1        0.0294
     31 C          61.9530   81.3219   13.0559 C.ar    1  UNL1        0.0022
     32 C          61.9019   82.1418   14.3110 C.ar    1  UNL1        0.0037
     33 C          62.6336   83.4493   14.3831 C.ar    1  UNL1        0.0714
     34 C          62.5825   84.2691   15.6381 C.3     1  UNL1        0.4184
     35 F          62.5314   85.0890   16.8932 F       1  UNL1       -0.1659
     36 F          63.9766   83.8334   15.9795 F       1  UNL1       -0.1659
     37 F          61.1884   84.7048   15.2968 F       1  UNL1       -0.1659
@<TRIPOS>BOND
     1    17    16    1
     2    17    15    1
     3    15     1    1
     4     1     2   ar
     5     2     3    2
     6     2     4   ar
     7     4     9    1
     8     9    10   ar
     9    10    11   ar
    10    11    12   ar
    11    12    13   ar
    12    13    14   ar
    13     4     5   ar
    14     5     6   ar
    15     6    26    1
    16    26    27    1
    17    27    28   ar
    18    28    29    1
    19    28    30   ar
    20    30    31   ar
    21    31    32   ar
    22    32    33   ar
    23    33    34    1
    24    34    35    1
    25    34    36    1
    26    34    37    1
    27     6     7   ar
    28     7     8    2
    29    17    20    1
    30    20    21   ar
    31    21    22   ar
    32    22    23   ar
    33    23    24   ar
    34    24    25   ar
    35     7     1   ar
    36    25    20   ar
    37    14     9   ar
    38    33    27   ar
    39    16    18    1
    40    16    19    1
@<TRIPOS>MOLECULE
*****
 37 40 0 0 0
SMALL
GASTEIGER

@<TRIPOS>ATOM
      1 N          63.0625   88.9808   13.0015 N.ar    1  UNL1       -0.2470
      2 C          62.1937   88.9615   11.7789 C.ar    1  UNL1        0.2657
      3 O          61.5579   90.2293   11.2906 O.2     1  UNL1       -0.2668
      4 C          61.9607   87.6745   11.0446 C.ar    1  UNL1        0.0736
      5 C          62.5966   86.4067   11.5329 C.ar    1  UNL1        0.0847
      6 N          63.4654   86.4260   12.7555 N.ar    1  UNL1       -0.2755
      7 C          63.6983   87.7130   13.4898 C.ar    1  UNL1        0.3341
      8 O          64.5672   87.7323   14.7124 O.2     1  UNL1       -0.2462
      9 C          61.0919   87.6552    9.8220 C.ar    1  UNL1        0.0060
     10 C          60.6151   88.9438    9.2203 C.ar    1  UNL1        0.0002
     11 C          59.7463   88.9246    7.9977 C.ar    1  UNL1        0.0000
     12 C          59.3542   87.6166    7.3767 C.ar    1  UNL1        0.0000
     13 C          59.8310   86.3279    7.9784 C.ar    1  UNL1        0.0000
     14 C          60.6998   86.3472    9.2011 C.ar    1  UNL1        0.0002
     15 C          63.2955   90.2679   13.7358 C.3     1  UNL1        0.1334
     16 N          65.6532   90.4396   14.8138 N.3     1  UNL1       -0.3172
     17 C          64.6671   90.8740   13.7702 C.3     1  UNL1        0.0968
     18 H          65.2262   89.7315   15.4111 H       1  UNL1        0.1192
     19 H          65.9251   91.2431   15.3801 H       1  UNL1        0.1192
     20 C          65.0528   91.9147   12.7610 C.ar    1  UNL1       -0.0063
     21 C          65.9343   93.0596   13.1637 C.ar    1  UNL1       -0.0029
     22 C          66.3199   94.1002   12.1545 C.ar    1  UNL1       -0.0003
     23 C          65.8240   93.9958   10.7427 C.ar    1  UNL1       -0.0000
     24 C          64.9426   92.8509   10.3400 C.ar    1  UNL1       -0.0003
     25 C          64.5570   91.8104   11.3492 C.ar    1  UNL1       -0.0029
     26 C          64.1012   85.1582   13.2438 C.3     1  UNL1        0.1394
     27 C          63.2746   83.9162   13.3995 C.ar    1  UNL1        0.0319
     28 C          62.4908   83.6898   14.6583 C.ar    1  UNL1        0.1379
     29 F          62.5336   84.7055   15.7614 F       1  UNL1       -0.2044
     30 C          61.6643   82.4479   14.8140 C.ar    1  UNL1        0.0294
     31 C          61.6215   81.4323   13.7110 C.ar    1  UNL1        0.0022
     32 C          62.4052   81.6586   12.4522 C.ar    1  UNL1        0.0037
     33 C          63.2318   82.9006   12.2965 C.ar    1  UNL1        0.0714
     34 C          64.0156   83.1270   11.0378 C.3     1  UNL1        0.4184
     35 F          64.7993   83.3533    9.7790 F       1  UNL1       -0.1659
     36 F          65.1970   82.4336   11.6487 F       1  UNL1       -0.1659
     37 F          62.8341   83.8203   10.4268 F       1  UNL1       -0.1659
@<TRIPOS>BOND
     1    17    16    1
     2    17    15    1
     3    15     1    1
     4     1     2   ar
     5     2     3    2
     6     2     4   ar
     7     4     9    1
     8     9    10   ar
     9    10    11   ar
    10    11    12   ar
    11    12    13   ar
    12    13    14   ar
    13     4     5   ar
    14     5     6   ar
    15     6    26    1
    16    26    27    1
    17    27    28   ar
    18    28    29    1
    19    28    30   ar
    20    30    31   ar
    21    31    32   ar
    22    32    33   ar
    23    33    34    1
    24    34    35    1
    25    34    36    1
    26    34    37    1
    27     6     7   ar
    28     7     8    2
    29    17    20    1
    30    20    21   ar
    31    21    22   ar
    32    22    23   ar
    33    23    24   ar
    34    24    25   ar
    35     7     1   ar
    36    25    20   ar
    37    14     9   ar
    38    33    27   ar
    39    16    18    1
    40    16    19    1
@<TRIPOS>MOLECULE
*****
 37 40 0 0 0
SMALL
GASTEIGER

@<TRIPOS>ATOM
      1 N          63.3756   89.9064   11.5289 N.ar    1  UNL1       -0.2470
      2 C          63.2729   88.8107   12.5482 C.ar    1  UNL1        0.2657
      3 O          62.5671   87.5320   12.2063 O.2     1  UNL1       -0.2668
      4 C          63.8760   88.9938   13.9093 C.ar    1  UNL1        0.0736
      5 C          64.5818   90.2724   14.2512 C.ar    1  UNL1        0.0847
      6 N          64.6845   91.3681   13.2319 N.ar    1  UNL1       -0.2755
      7 C          64.0814   91.1850   11.8708 C.ar    1  UNL1        0.3341
      8 O          64.1841   92.2807   10.8514 O.2     1  UNL1       -0.2462
      9 C          63.7733   87.8981   14.9287 C.ar    1  UNL1        0.0060
     10 C          64.3188   86.5349   14.6221 C.ar    1  UNL1        0.0002
     11 C          64.2162   85.4393   15.6414 C.ar    1  UNL1        0.0000
     12 C          63.5679   85.7068   16.9674 C.ar    1  UNL1        0.0000
     13 C          63.0224   87.0700   17.2740 C.ar    1  UNL1        0.0000
     14 C          63.1251   88.1657   16.2547 C.ar    1  UNL1        0.0002
     15 C          62.7725   89.7233   10.1677 C.3     1  UNL1        0.1334
     16 N          60.2906   90.2533   10.7237 N.3     1  UNL1       -0.3172
     17 C          61.3136   89.4029   10.0306 C.3     1  UNL1        0.0968
     18 H          60.7601   90.9980   11.2387 H       1  UNL1        0.1192
     19 H          59.7532   89.6779   11.3722 H       1  UNL1        0.1192
     20 C          60.8777   88.2320    9.2005 C.ar    1  UNL1       -0.0063
     21 C          61.7661   87.0300    9.0741 C.ar    1  UNL1       -0.0029
     22 C          61.3301   85.8592    8.2440 C.ar    1  UNL1       -0.0003
     23 C          60.0057   85.8903    7.5404 C.ar    1  UNL1       -0.0000
     24 C          59.1173   87.0923    7.6669 C.ar    1  UNL1       -0.0003
     25 C          59.5533   88.2631    8.4969 C.ar    1  UNL1       -0.0029
     26 C          65.3902   92.6468   13.5738 C.3     1  UNL1        0.1394
     27 C          66.6742   92.6108   14.3484 C.ar    1  UNL1        0.0319
     28 C          66.6544   92.7622   15.8407 C.ar    1  UNL1        0.1379
     29 F          65.3506   92.9495   16.5582 F       1  UNL1       -0.2044
     30 C          67.9384   92.7262   16.6153 C.ar    1  UNL1        0.0294
     31 C          69.2422   92.5388   15.8977 C.ar    1  UNL1        0.0022
     32 C          69.2621   92.3874   14.4055 C.ar    1  UNL1        0.0037
     33 C          67.9781   92.4234   13.6308 C.ar    1  UNL1        0.0714
     34 C          67.9979   92.2720   12.1386 C.3     1  UNL1        0.4184
     35 F          68.0178   92.1207   10.6465 F       1  UNL1       -0.1659
     36 F          68.8755   91.0630   12.2730 F       1  UNL1       -0.1659
     37 F          67.1203   93.4810   12.0043 F       1  UNL1       -0.1659
@<TRIPOS>BOND
     1    17    16    1
     2    17    15    1
     3    15     1    1
     4     1     2   ar
     5     2     3    2
     6     2     4   ar
     7     4     9    1
     8     9    10   ar
     9    10    11   ar
    10    11    12   ar
    11    12    13   ar
    12    13    14   ar
    13     4     5   ar
    14     5     6   ar
    15     6    26    1
    16    26    27    1
    17    27    28   ar
    18    28    29    1
    19    28    30   ar
    20    30    31   ar
    21    31    32   ar
    22    32    33   ar
    23    33    34    1
    24    34    35    1
    25    34    36    1
    26    34    37    1
    27     6     7   ar
    28     7     8    2
    29    17    20    1
    30    20    21   ar
    31    21    22   ar
    32    22    23   ar
    33    23    24   ar
    34    24    25   ar
    35     7     1   ar
    36    25    20   ar
    37    14     9   ar
    38    33    27   ar
    39    16    18    1
    40    16    19    1
@<TRIPOS>MOLECULE
*****
 37 40 0 0 0
SMALL
GASTEIGER

@<TRIPOS>ATOM
      1 N          62.7848   88.3863   11.9445 N.ar    1  UNL1       -0.2470
      2 C          62.2572   87.9193   10.6204 C.ar    1  UNL1        0.2657
      3 O          61.6403   88.9023    9.6700 O.2     1  UNL1       -0.2668
      4 C          62.3464   86.4694   10.2467 C.ar    1  UNL1        0.0736
      5 C          62.9632   85.4865   11.1971 C.ar    1  UNL1        0.0847
      6 N          63.4909   85.9535   12.5213 N.ar    1  UNL1       -0.2755
      7 C          63.4017   87.4034   12.8950 C.ar    1  UNL1        0.3341
      8 O          63.9294   87.8704   14.2192 O.2     1  UNL1       -0.2462
      9 C          61.8187   86.0024    8.9224 C.ar    1  UNL1        0.0060
     10 C          60.3945   86.2804    8.5423 C.ar    1  UNL1        0.0002
     11 C          59.8668   85.8134    7.2182 C.ar    1  UNL1        0.0000
     12 C          60.7633   85.0683    6.2741 C.ar    1  UNL1        0.0000
     13 C          62.1875   84.7903    6.6542 C.ar    1  UNL1        0.0000
     14 C          62.7152   85.2573    7.9784 C.ar    1  UNL1        0.0002
     15 C          62.6957   89.8363   12.3183 C.3     1  UNL1        0.1334
     16 N          62.6221   90.1130   14.9006 N.3     1  UNL1       -0.3172
     17 C          63.3230   90.3227   13.5911 C.3     1  UNL1        0.0968
     18 H          61.7394   89.6277   14.7399 H       1  UNL1        0.1192
     19 H          62.4388   91.0166   15.3367 H       1  UNL1        0.1192
     20 C          64.6512   91.0188   13.5544 C.ar    1  UNL1       -0.0063
     21 C          65.0146   91.8797   12.3810 C.ar    1  UNL1       -0.0029
     22 C          66.3427   92.5758   12.3444 C.ar    1  UNL1       -0.0003
     23 C          67.3075   92.4110   13.4810 C.ar    1  UNL1       -0.0000
     24 C          66.9442   91.5501   14.6543 C.ar    1  UNL1       -0.0003
     25 C          65.6160   90.8540   14.6910 C.ar    1  UNL1       -0.0029
     26 C          64.1078   84.9705   13.4717 C.3     1  UNL1        0.1394
     27 C          63.5737   83.5713   13.5549 C.ar    1  UNL1        0.0319
     28 C          63.9486   82.5621   12.5104 C.ar    1  UNL1        0.1379
     29 F          64.8576   82.9521   11.3827 F       1  UNL1       -0.2044
     30 C          63.4146   81.1629   12.5936 C.ar    1  UNL1        0.0294
     31 C          62.5057   80.7728   13.7213 C.ar    1  UNL1        0.0022
     32 C          62.1307   81.7820   14.7657 C.ar    1  UNL1        0.0037
     33 C          62.6648   83.1813   14.6826 C.ar    1  UNL1        0.0714
     34 C          62.2899   84.1904   15.7270 C.3     1  UNL1        0.4184
     35 F          61.9149   85.1996   16.7715 F       1  UNL1       -0.1659
     36 F          63.5200   83.8377   16.5094 F       1  UNL1       -0.1659
     37 F          61.0597   84.5431   14.9447 F       1  UNL1       -0.1659
@<TRIPOS>BOND
     1    17    16    1
     2    17    15    1
     3    15     1    1
     4     1     2   ar
     5     2     3    2
     6     2     4   ar
     7     4     9    1
     8     9    10   ar
     9    10    11   ar
    10    11    12   ar
    11    12    13   ar
    12    13    14   ar
    13     4     5   ar
    14     5     6   ar
    15     6    26    1
    16    26    27    1
    17    27    28   ar
    18    28    29    1
    19    28    30   ar
    20    30    31   ar
    21    31    32   ar
    22    32    33   ar
    23    33    34    1
    24    34    35    1
    25    34    36    1
    26    34    37    1
    27     6     7   ar
    28     7     8    2
    29    17    20    1
    30    20    21   ar
    31    21    22   ar
    32    22    23   ar
    33    23    24   ar
    34    24    25   ar
    35     7     1   ar
    36    25    20   ar
    37    14     9   ar
    38    33    27   ar
    39    16    18    1
    40    16    19    1
@<TRIPOS>MOLECULE
*****
 37 40 0 0 0
SMALL
GASTEIGER

@<TRIPOS>ATOM
      1 N          60.1180   88.3562    9.6029 N.ar    1  UNL1       -0.2470
      2 C          60.7959   87.0194    9.6603 C.ar    1  UNL1        0.2657
      3 O          60.3571   85.9159    8.7440 O.2     1  UNL1       -0.2668
      4 C          61.9127   86.7861   10.6341 C.ar    1  UNL1        0.0736
      5 C          62.3516   87.8896   11.5505 C.ar    1  UNL1        0.0847
      6 N          61.6736   89.2264   11.4930 N.ar    1  UNL1       -0.2755
      7 C          60.5569   89.4597   10.5192 C.ar    1  UNL1        0.3341
      8 O          59.8789   90.7966   10.4617 O.2     1  UNL1       -0.2462
      9 C          62.5907   85.4493   10.6917 C.ar    1  UNL1        0.0060
     10 C          62.6061   84.6707   11.9737 C.ar    1  UNL1        0.0002
     11 C          63.2840   83.3339   12.0312 C.ar    1  UNL1        0.0000
     12 C          63.9466   82.7756   10.8067 C.ar    1  UNL1        0.0000
     13 C          63.9313   83.5542    9.5247 C.ar    1  UNL1        0.0000
     14 C          63.2533   84.8911    9.4672 C.ar    1  UNL1        0.0002
     15 C          59.0012   88.5895    8.6290 C.3     1  UNL1        0.1334
     16 N          59.5612   87.1073    6.5701 N.3     1  UNL1       -0.3172
     17 C          59.2495   88.4524    7.1561 C.3     1  UNL1        0.0968
     18 H          59.5635   86.4060    7.3108 H       1  UNL1        0.1192
     19 H          60.4786   87.1346    6.1251 H       1  UNL1        0.1192
     20 C          59.1861   89.6604    6.2691 C.ar    1  UNL1       -0.0063
     21 C          57.8637   90.3011    5.9679 C.ar    1  UNL1       -0.0029
     22 C          57.8003   91.5091    5.0810 C.ar    1  UNL1       -0.0003
     23 C          59.0593   92.0764    4.4952 C.ar    1  UNL1       -0.0000
     24 C          60.3817   91.4357    4.7965 C.ar    1  UNL1       -0.0003
     25 C          60.4451   90.2277    5.6834 C.ar    1  UNL1       -0.0029
     26 C          62.1125   90.3299   12.4094 C.3     1  UNL1        0.1394
     27 C          63.4795   90.9292   12.2607 C.ar    1  UNL1        0.0319
     28 C          63.8555   91.6336   10.9908 C.ar    1  UNL1        0.1379
     29 F          62.8646   91.7386    9.8697 F       1  UNL1       -0.2044
     30 C          65.2225   92.2329   10.8421 C.ar    1  UNL1        0.0294
     31 C          66.2135   92.1279   11.9632 C.ar    1  UNL1        0.0022
     32 C          65.8375   91.4236   13.2331 C.ar    1  UNL1        0.0037
     33 C          64.4704   90.8242   13.3818 C.ar    1  UNL1        0.0714
     34 C          64.0944   90.1199   14.6516 C.3     1  UNL1        0.4184
     35 F          63.7184   89.4156   15.9215 F       1  UNL1       -0.1659
     36 F          64.5050   88.8102   14.0468 F       1  UNL1       -0.1659
     37 F          63.6838   91.4297   15.2565 F       1  UNL1       -0.1659
@<TRIPOS>BOND
     1    17    16    1
     2    17    15    1
     3    15     1    1
     4     1     2   ar
     5     2     3    2
     6     2     4   ar
     7     4     9    1
     8     9    10   ar
     9    10    11   ar
    10    11    12   ar
    11    12    13   ar
    12    13    14   ar
    13     4     5   ar
    14     5     6   ar
    15     6    26    1
    16    26    27    1
    17    27    28   ar
    18    28    29    1
    19    28    30   ar
    20    30    31   ar
    21    31    32   ar
    22    32    33   ar
    23    33    34    1
    24    34    35    1
    25    34    36    1
    26    34    37    1
    27     6     7   ar
    28     7     8    2
    29    17    20    1
    30    20    21   ar
    31    21    22   ar
    32    22    23   ar
    33    23    24   ar
    34    24    25   ar
    35     7     1   ar
    36    25    20   ar
    37    14     9   ar
    38    33    27   ar
    39    16    18    1
    40    16    19    1
@<TRIPOS>MOLECULE
*****
 37 40 0 0 0
SMALL
GASTEIGER

@<TRIPOS>ATOM
      1 N          61.9007   87.3132   11.9342 N.ar    1  UNL1       -0.2470
      2 C          62.3915   88.5145   12.6864 C.ar    1  UNL1        0.2657
      3 O          61.7173   89.8418   12.5024 O.2     1  UNL1       -0.2668
      4 C          63.5566   88.3886   13.6227 C.ar    1  UNL1        0.0736
      5 C          64.2309   87.0613   13.8067 C.ar    1  UNL1        0.0847
      6 N          63.7400   85.8600   13.0545 N.ar    1  UNL1       -0.2755
      7 C          62.5749   85.9860   12.1182 C.ar    1  UNL1        0.3341
      8 O          62.0840   84.7847   11.3659 O.2     1  UNL1       -0.2462
      9 C          64.0476   89.5899   14.3750 C.ar    1  UNL1        0.0060
     10 C          63.4497   89.9371   15.7062 C.ar    1  UNL1        0.0002
     11 C          63.9405   91.1383   16.4585 C.ar    1  UNL1        0.0000
     12 C          65.0294   91.9925   15.8796 C.ar    1  UNL1        0.0000
     13 C          65.6273   91.6453   14.5485 C.ar    1  UNL1        0.0000
     14 C          65.1363   90.4439   13.7962 C.ar    1  UNL1        0.0002
     15 C          60.7355   87.4391   10.9979 C.3     1  UNL1        0.1334
     16 N          60.8773   89.1905    9.0841 N.3     1  UNL1       -0.3172
     17 C          60.9667   87.7685    9.5529 C.3     1  UNL1        0.0968
     18 H          60.6528   89.7955    9.8741 H       1  UNL1        0.1192
     19 H          60.1469   89.2701    8.3767 H       1  UNL1        0.1192
     20 C          61.2873   86.6757    8.5766 C.ar    1  UNL1       -0.0063
     21 C          60.2265   86.1656    7.6469 C.ar    1  UNL1       -0.0029
     22 C          60.5472   85.0729    6.6706 C.ar    1  UNL1       -0.0003
     23 C          61.9286   84.4903    6.6241 C.ar    1  UNL1       -0.0000
     24 C          62.9895   85.0004    7.5538 C.ar    1  UNL1       -0.0003
     25 C          62.6688   86.0931    8.5300 C.ar    1  UNL1       -0.0029
     26 C          64.4142   84.5328   13.2385 C.3     1  UNL1        0.1394
     27 C          63.5966   83.2761   13.2833 C.ar    1  UNL1        0.0319
     28 C          63.7075   82.2693   12.1769 C.ar    1  UNL1        0.1379
     29 F          64.6360   82.5193   11.0256 F       1  UNL1       -0.2044
     30 C          62.8899   81.0125   12.2217 C.ar    1  UNL1        0.0294
     31 C          61.9614   80.7625   13.3730 C.ar    1  UNL1        0.0022
     32 C          61.8505   81.7692   14.4794 C.ar    1  UNL1        0.0037
     33 C          62.6681   83.0260   14.4346 C.ar    1  UNL1        0.0714
     34 C          62.5572   84.0327   15.5410 C.3     1  UNL1        0.4184
     35 F          62.4463   85.0395   16.6474 F       1  UNL1       -0.1659
     36 F          61.2202   84.4636   15.0150 F       1  UNL1       -0.1659
     37 F          63.8942   83.6019   16.0670 F       1  UNL1       -0.1659
@<TRIPOS>BOND
     1    17    16    1
     2    17    15    1
     3    15     1    1
     4     1     2   ar
     5     2     3    2
     6     2     4   ar
     7     4     9    1
     8     9    10   ar
     9    10    11   ar
    10    11    12   ar
    11    12    13   ar
    12    13    14   ar
    13     4     5   ar
    14     5     6   ar
    15     6    26    1
    16    26    27    1
    17    27    28   ar
    18    28    29    1
    19    28    30   ar
    20    30    31   ar
    21    31    32   ar
    22    32    33   ar
    23    33    34    1
    24    34    35    1
    25    34    36    1
    26    34    37    1
    27     6     7   ar
    28     7     8    2
    29    17    20    1
    30    20    21   ar
    31    21    22   ar
    32    22    23   ar
    33    23    24   ar
    34    24    25   ar
    35     7     1   ar
    36    25    20   ar
    37    14     9   ar
    38    33    27   ar
    39    16    18    1
    40    16    19    1
