@<TRIPOS>MOLECULE
*****
 27 29 0 0 0
SMALL
GASTEIGER

@<TRIPOS>ATOM
      1 C          62.4971   89.7161   10.7887 C.ar    1  UNL1        0.0045
      2 C          61.6782   90.2991    9.6755 C.ar    1  UNL1        0.0004
      3 C          60.7385   89.4254    8.8986 C.ar    1  UNL1        0.0076
      4 C          60.6177   87.9686    9.2350 C.ar    1  UNL1        0.0870
      5 C          61.4366   87.3856   10.3483 C.ar    1  UNL1        0.1427
      6 C          62.3763   88.2594   11.1252 C.ar    1  UNL1        0.0371
      7 C          65.2158   92.4822   11.6297 C.ar    1  UNL1        0.0077
      8 C          65.3163   92.3373   13.1193 C.ar    1  UNL1        0.0953
      9 N          64.4770   91.3187   13.8320 N.ar    1  UNL1       -0.2426
     10 C          63.5373   90.4450   13.0552 C.ar    1  UNL1        0.0988
     11 C          63.4368   90.5898   11.5656 C.ar    1  UNL1        0.0190
     12 C          64.2761   91.6085   10.8529 C.ar    1  UNL1       -0.0005
     13 C          67.9708   91.8863    9.9851 C.3     1  UNL1        0.0499
     14 C          67.3214   93.2269   10.1610 C.2     1  UNL1        0.0681
     15 N          67.8243   94.5290    9.6118 N.2     1  UNL1       -0.1563
     16 N          66.8688   95.6078   10.0284 N.2     1  UNL1       -0.1510
     17 C          65.7754   94.9723   10.8350 C.2     1  UNL1        0.1054
     18 C          66.0551   93.5009   10.9169 C.3     1  UNL1        0.1047
     19 C          59.6779   87.0949    8.4582 C.2     1  UNL1        0.2457
     20 N          60.1240   85.7399    7.9944 N.am    1  UNL1       -0.3252
     21 O          58.2922   87.5761    8.1451 O.2     1  UNL1       -0.2703
     22 H          61.0335   85.4241    8.1999 H       1  UNL1        0.1453
     23 H          59.5072   85.1665    7.4845 H       1  UNL1        0.1453
     24 O          61.3158   85.9288   10.6848 O.3     1  UNL1       -0.4790
     25 C          62.5227   85.0407   10.6167 C.3     1  UNL1        0.1661
     26 C          63.2214   84.8240    9.3071 C.3     1  UNL1        0.0472
     27 C          63.0309   84.3694   11.8580 C.3     1  UNL1        0.0472
@<TRIPOS>BOND
     1    13    14    1
     2    14    15    2
     3    15    16    1
     4    16    17    2
     5    17    18    1
     6    18     7    1
     7     7     8   ar
     8     8     9   ar
     9     9    10   ar
    10    10    11   ar
    11    11     1    1
    12     1     2   ar
    13     2     3   ar
    14     3     4   ar
    15     4    19    1
    16    19    20   am
    17    19    21    2
    18     4     5   ar
    19     5    24    1
    20    24    25    1
    21    25    26    1
    22    25    27    1
    23     5     6   ar
    24    11    12   ar
    25    18    14    1
    26    12     7   ar
    27     6     1   ar
    28    20    22    1
    29    20    23    1
@<TRIPOS>MOLECULE
*****
 27 29 0 0 0
SMALL
GASTEIGER

@<TRIPOS>ATOM
      1 C          63.4040   90.3453   12.1193 C.ar    1  UNL1        0.0045
      2 C          64.0359   90.0512   13.4475 C.ar    1  UNL1        0.0004
      3 C          65.1611   90.9072   13.9487 C.ar    1  UNL1        0.0076
      4 C          65.6544   92.0573   13.1218 C.ar    1  UNL1        0.0870
      5 C          65.0225   92.3514   11.7936 C.ar    1  UNL1        0.1427
      6 C          63.8973   91.4954   11.2923 C.ar    1  UNL1        0.0371
      7 C          61.4040   87.6221   10.0375 C.ar    1  UNL1        0.0077
      8 C          60.0285   87.7773   10.6155 C.ar    1  UNL1        0.0953
      9 N          59.7783   88.7886   11.6947 N.ar    1  UNL1       -0.2426
     10 C          60.9034   89.6446   12.1959 C.ar    1  UNL1        0.0988
     11 C          62.2789   89.4893   11.6180 C.ar    1  UNL1        0.0190
     12 C          62.5291   88.4781   10.5388 C.ar    1  UNL1       -0.0005
     13 C          59.2932   86.7366    7.7115 C.3     1  UNL1        0.0499
     14 C          60.6841   86.2038    7.8892 C.2     1  UNL1        0.0681
     15 N          61.3489   85.1705    7.0289 N.2     1  UNL1       -0.1563
     16 N          62.7301   84.9388    7.5663 N.2     1  UNL1       -0.1510
     17 C          62.9188   85.8290    8.7587 C.2     1  UNL1        0.1054
     18 C          61.6543   86.6108    8.9583 C.3     1  UNL1        0.1047
     19 C          66.7795   92.9133   13.6230 C.2     1  UNL1        0.2457
     20 N          68.1741   92.3635   13.6760 N.am    1  UNL1       -0.3252
     21 O          66.5102   94.3192   14.0713 O.2     1  UNL1       -0.2703
     22 H          68.3509   91.4408   13.3818 H       1  UNL1        0.1453
     23 H          68.9126   92.9253   14.0050 H       1  UNL1        0.1453
     24 O          65.5158   93.5016   10.9665 O.3     1  UNL1       -0.4790
     25 C          66.7329   93.3384   10.1052 C.3     1  UNL1        0.1661
     26 C          67.1678   94.4544    9.2022 C.3     1  UNL1        0.0472
     27 C          67.5151   92.0592   10.1468 C.3     1  UNL1        0.0472
@<TRIPOS>BOND
     1    13    14    1
     2    14    15    2
     3    15    16    1
     4    16    17    2
     5    17    18    1
     6    18     7    1
     7     7     8   ar
     8     8     9   ar
     9     9    10   ar
    10    10    11   ar
    11    11     1    1
    12     1     2   ar
    13     2     3   ar
    14     3     4   ar
    15     4    19    1
    16    19    20   am
    17    19    21    2
    18     4     5   ar
    19     5    24    1
    20    24    25    1
    21    25    26    1
    22    25    27    1
    23     5     6   ar
    24    11    12   ar
    25    18    14    1
    26    12     7   ar
    27     6     1   ar
    28    20    22    1
    29    20    23    1
@<TRIPOS>MOLECULE
*****
 27 29 0 0 0
SMALL
GASTEIGER

@<TRIPOS>ATOM
      1 C          64.0988   86.8374   14.3151 C.ar    1  UNL1        0.0045
      2 C          65.0613   85.8404   14.8891 C.ar    1  UNL1        0.0004
      3 C          65.1176   84.4475   14.3353 C.ar    1  UNL1        0.0076
      4 C          64.2114   84.0516   13.2075 C.ar    1  UNL1        0.0870
      5 C          63.2489   85.0486   12.6335 C.ar    1  UNL1        0.1427
      6 C          63.1926   86.4415   13.1873 C.ar    1  UNL1        0.0371
      7 C          64.6841   90.7428   14.7092 C.ar    1  UNL1        0.0077
      8 C          63.9299   91.0160   15.9766 C.ar    1  UNL1        0.0953
      9 N          63.2320   89.8964   16.6902 N.ar    1  UNL1       -0.2426
     10 C          63.2883   88.5035   16.1364 C.ar    1  UNL1        0.0988
     11 C          64.0425   88.2302   14.8690 C.ar    1  UNL1        0.0190
     12 C          64.7404   89.3499   14.1553 C.ar    1  UNL1       -0.0005
     13 C          66.9350   92.7272   15.9918 C.3     1  UNL1        0.0499
     14 C          66.4166   92.7745   14.5851 C.2     1  UNL1        0.0681
     15 N          66.8419   93.7423   13.5209 N.2     1  UNL1       -0.1563
     16 N          66.0701   93.4284   12.2735 N.2     1  UNL1       -0.1510
     17 C          65.1679   92.2665   12.5669 C.2     1  UNL1        0.1054
     18 C          65.3820   91.8624   13.9955 C.3     1  UNL1        0.1047
     19 C          64.2677   82.6587   12.6537 C.2     1  UNL1        0.2457
     20 N          63.7942   81.5021   13.4831 N.am    1  UNL1       -0.3252
     21 O          64.7975   82.4225   11.2704 O.2     1  UNL1       -0.2703
     22 H          63.4464   81.6572   14.3910 H       1  UNL1        0.1453
     23 H          63.8311   80.5879   13.1196 H       1  UNL1        0.1453
     24 O          62.3426   84.6528   11.5056 O.3     1  UNL1       -0.4790
     25 C          62.0676   85.6175   10.3905 C.3     1  UNL1        0.1661
     26 C          61.0414   86.6970   10.5686 C.3     1  UNL1        0.0472
     27 C          62.8189   85.5028    9.0972 C.3     1  UNL1        0.0472
@<TRIPOS>BOND
     1    13    14    1
     2    14    15    2
     3    15    16    1
     4    16    17    2
     5    17    18    1
     6    18     7    1
     7     7     8   ar
     8     8     9   ar
     9     9    10   ar
    10    10    11   ar
    11    11     1    1
    12     1     2   ar
    13     2     3   ar
    14     3     4   ar
    15     4    19    1
    16    19    20   am
    17    19    21    2
    18     4     5   ar
    19     5    24    1
    20    24    25    1
    21    25    26    1
    22    25    27    1
    23     5     6   ar
    24    11    12   ar
    25    18    14    1
    26    12     7   ar
    27     6     1   ar
    28    20    22    1
    29    20    23    1
@<TRIPOS>MOLECULE
*****
 27 29 0 0 0
SMALL
GASTEIGER

@<TRIPOS>ATOM
      1 C          63.7950   90.0125   12.8385 C.ar    1  UNL1        0.0045
      2 C          64.3514   89.6560   14.1850 C.ar    1  UNL1        0.0004
      3 C          65.3180   90.5794   14.8655 C.ar    1  UNL1        0.0076
      4 C          65.7283   91.8592   14.1994 C.ar    1  UNL1        0.0870
      5 C          65.1719   92.2156   12.8529 C.ar    1  UNL1        0.1427
      6 C          64.2053   91.2923   12.1724 C.ar    1  UNL1        0.0371
      7 C          62.2192   86.7233   11.2738 C.ar    1  UNL1        0.0077
      8 C          60.8951   87.2425   10.7970 C.ar    1  UNL1        0.0953
      9 N          60.5377   88.6849   11.0007 N.ar    1  UNL1       -0.2426
     10 C          61.5043   89.6082   11.6812 C.ar    1  UNL1        0.0988
     11 C          62.8284   89.0891   12.1580 C.ar    1  UNL1        0.0190
     12 C          63.1858   87.6467   11.9543 C.ar    1  UNL1       -0.0005
     13 C          63.0811   85.3414    8.4459 C.3     1  UNL1        0.0499
     14 C          62.9728   84.6457    9.7703 C.2     1  UNL1        0.0681
     15 N          63.2417   83.1925   10.0274 N.2     1  UNL1       -0.1563
     16 N          63.0117   82.9296   11.4862 N.2     1  UNL1       -0.1510
     17 C          62.6007   84.2202   12.1306 C.2     1  UNL1        0.1054
     18 C          62.5766   85.2808   11.0701 C.3     1  UNL1        0.1047
     19 C          66.6949   92.7825   14.8799 C.2     1  UNL1        0.2457
     20 N          66.4078   93.2804   16.2654 N.am    1  UNL1       -0.3252
     21 O          67.9487   93.2080   14.1749 O.2     1  UNL1       -0.2703
     22 H          65.5849   93.0012   16.7281 H       1  UNL1        0.1453
     23 H          67.0422   93.8864   16.7120 H       1  UNL1        0.1453
     24 O          65.5821   93.4955   12.1867 O.3     1  UNL1       -0.4790
     25 C          66.4713   93.4610   10.9792 C.3     1  UNL1        0.1661
     26 C          67.3792   92.2892   10.7495 C.3     1  UNL1        0.0472
     27 C          66.4526   94.5983   10.0013 C.3     1  UNL1        0.0472
@<TRIPOS>BOND
     1    13    14    1
     2    14    15    2
     3    15    16    1
     4    16    17    2
     5    17    18    1
     6    18     7    1
     7     7     8   ar
     8     8     9   ar
     9     9    10   ar
    10    10    11   ar
    11    11     1    1
    12     1     2   ar
    13     2     3   ar
    14     3     4   ar
    15     4    19    1
    16    19    20   am
    17    19    21    2
    18     4     5   ar
    19     5    24    1
    20    24    25    1
    21    25    26    1
    22    25    27    1
    23     5     6   ar
    24    11    12   ar
    25    18    14    1
    26    12     7   ar
    27     6     1   ar
    28    20    22    1
    29    20    23    1
@<TRIPOS>MOLECULE
*****
 27 29 0 0 0
SMALL
GASTEIGER

@<TRIPOS>ATOM
      1 C          63.5950   86.8638   15.2921 C.ar    1  UNL1        0.0045
      2 C          62.8522   86.0560   16.3148 C.ar    1  UNL1        0.0004
      3 C          62.6627   84.5818   16.1128 C.ar    1  UNL1        0.0076
      4 C          63.2159   83.9154   14.8881 C.ar    1  UNL1        0.0870
      5 C          63.9586   84.7231   13.8655 C.ar    1  UNL1        0.1427
      6 C          64.1482   86.1973   14.0675 C.ar    1  UNL1        0.0371
      7 C          64.8016   90.6019   14.7258 C.ar    1  UNL1        0.0077
      8 C          64.1637   91.2864   15.8981 C.ar    1  UNL1        0.0953
      9 N          63.3361   90.4967   16.8684 N.ar    1  UNL1       -0.2426
     10 C          63.1466   89.0225   16.6665 C.ar    1  UNL1        0.0988
     11 C          63.7845   88.3380   15.4941 C.ar    1  UNL1        0.0190
     12 C          64.6121   89.1277   14.5238 C.ar    1  UNL1       -0.0005
     13 C          63.9087   91.4773   11.7115 C.3     1  UNL1        0.0499
     14 C          65.2188   91.7939   12.3699 C.2     1  UNL1        0.0681
     15 N          66.3484   92.5685   11.7584 N.2     1  UNL1       -0.1563
     16 N          67.4570   92.6449   12.7660 N.2     1  UNL1       -0.1510
     17 C          67.0125   91.9174   14.0002 C.2     1  UNL1        0.1054
     18 C          65.6292   91.3915   13.7554 C.3     1  UNL1        0.1047
     19 C          63.0263   82.4412   14.6862 C.2     1  UNL1        0.2457
     20 N          61.6438   81.8730   14.5610 N.am    1  UNL1       -0.3252
     21 O          64.2193   81.5352   14.6093 O.2     1  UNL1       -0.2703
     22 H          60.8608   82.4676   14.6114 H       1  UNL1        0.1453
     23 H          61.5194   80.9054   14.4284 H       1  UNL1        0.1453
     24 O          64.5118   84.0567   12.6408 O.3     1  UNL1       -0.4790
     25 C          63.6102   83.7496   11.4820 C.3     1  UNL1        0.1661
     26 C          62.5267   84.7136   11.0987 C.3     1  UNL1        0.0472
     27 C          63.7920   82.4786   10.7065 C.3     1  UNL1        0.0472
@<TRIPOS>BOND
     1    13    14    1
     2    14    15    2
     3    15    16    1
     4    16    17    2
     5    17    18    1
     6    18     7    1
     7     7     8   ar
     8     8     9   ar
     9     9    10   ar
    10    10    11   ar
    11    11     1    1
    12     1     2   ar
    13     2     3   ar
    14     3     4   ar
    15     4    19    1
    16    19    20   am
    17    19    21    2
    18     4     5   ar
    19     5    24    1
    20    24    25    1
    21    25    26    1
    22    25    27    1
    23     5     6   ar
    24    11    12   ar
    25    18    14    1
    26    12     7   ar
    27     6     1   ar
    28    20    22    1
    29    20    23    1
@<TRIPOS>MOLECULE
*****
 27 29 0 0 0
SMALL
GASTEIGER

@<TRIPOS>ATOM
      1 C          64.5433   90.2325   13.8472 C.ar    1  UNL1        0.0045
      2 C          63.8690   90.5123   12.5368 C.ar    1  UNL1        0.0004
      3 C          64.3191   91.6682   11.6935 C.ar    1  UNL1        0.0076
      4 C          65.4435   92.5443   12.1605 C.ar    1  UNL1        0.0870
      5 C          66.1177   92.2645   13.4709 C.ar    1  UNL1        0.1427
      6 C          65.6676   91.1086   14.3142 C.ar    1  UNL1        0.0371
      7 C          63.7212   86.5232   14.9942 C.ar    1  UNL1        0.0077
      8 C          63.1929   86.7646   16.3771 C.ar    1  UNL1        0.0953
      9 N          63.1147   88.1620   16.9167 N.ar    1  UNL1       -0.2426
     10 C          63.5648   89.3180   16.0734 C.ar    1  UNL1        0.0988
     11 C          64.0931   89.0765   14.6905 C.ar    1  UNL1        0.0190
     12 C          64.1714   87.6792   14.1509 C.ar    1  UNL1       -0.0005
     13 C          62.6464   85.5304   12.0772 C.3     1  UNL1        0.0499
     14 C          63.3054   84.6695   13.1138 C.2     1  UNL1        0.0681
     15 N          63.5862   83.2011   12.9916 N.2     1  UNL1       -0.1563
     16 N          64.2537   82.7498   14.2568 N.2     1  UNL1       -0.1510
     17 C          64.3856   83.9394   15.1610 C.2     1  UNL1        0.1054
     18 C          63.7995   85.1258   14.4546 C.3     1  UNL1        0.1047
     19 C          65.8936   93.7003   11.3172 C.2     1  UNL1        0.2457
     20 N          65.9819   95.0739   11.9132 N.am    1  UNL1       -0.3252
     21 O          66.2554   93.4826    9.8779 O.2     1  UNL1       -0.2703
     22 H          65.7444   95.2169   12.8578 H       1  UNL1        0.1453
     23 H          66.2773   95.8326   11.3596 H       1  UNL1        0.1453
     24 O          67.2422   93.1407   13.9380 O.3     1  UNL1       -0.4790
     25 C          68.3943   92.5446   14.6911 C.3     1  UNL1        0.1661
     26 C          69.6006   92.0509   13.9488 C.3     1  UNL1        0.0472
     27 C          68.3401   92.4423   16.1867 C.3     1  UNL1        0.0472
@<TRIPOS>BOND
     1    13    14    1
     2    14    15    2
     3    15    16    1
     4    16    17    2
     5    17    18    1
     6    18     7    1
     7     7     8   ar
     8     8     9   ar
     9     9    10   ar
    10    10    11   ar
    11    11     1    1
    12     1     2   ar
    13     2     3   ar
    14     3     4   ar
    15     4    19    1
    16    19    20   am
    17    19    21    2
    18     4     5   ar
    19     5    24    1
    20    24    25    1
    21    25    26    1
    22    25    27    1
    23     5     6   ar
    24    11    12   ar
    25    18    14    1
    26    12     7   ar
    27     6     1   ar
    28    20    22    1
    29    20    23    1
@<TRIPOS>MOLECULE
*****
 27 29 0 0 0
SMALL
GASTEIGER

@<TRIPOS>ATOM
      1 C          63.6618   89.0262   13.2117 C.ar    1  UNL1        0.0045
      2 C          63.8449   88.7976   14.6828 C.ar    1  UNL1        0.0004
      3 C          64.3911   89.8931   15.5497 C.ar    1  UNL1        0.0076
      4 C          64.7541   91.2172   14.9455 C.ar    1  UNL1        0.0870
      5 C          64.5709   91.4457   13.4744 C.ar    1  UNL1        0.1427
      6 C          64.0248   90.3502   12.6075 C.ar    1  UNL1        0.0371
      7 C          62.7336   85.4017   11.8881 C.ar    1  UNL1        0.0077
      8 C          62.0234   85.7396   10.6109 C.ar    1  UNL1        0.0953
      9 N          61.8593   87.1730   10.2006 N.ar    1  UNL1       -0.2426
     10 C          62.4054   88.2685   11.0676 C.ar    1  UNL1        0.0988
     11 C          63.1157   87.9306   12.3448 C.ar    1  UNL1        0.0190
     12 C          63.2798   86.4972   12.7551 C.ar    1  UNL1       -0.0005
     13 C          64.1676   83.0554   10.1307 C.3     1  UNL1        0.0499
     14 C          63.5569   82.8898   11.4907 C.2     1  UNL1        0.0681
     15 N          63.4981   81.6167   12.2816 N.2     1  UNL1       -0.1563
     16 N          62.8026   81.9082   13.5784 N.2     1  UNL1       -0.1510
     17 C          62.4317   83.3616   13.5887 C.2     1  UNL1        0.1054
     18 C          62.8978   83.9682   12.2985 C.3     1  UNL1        0.1047
     19 C          65.3002   92.3127   15.8125 C.2     1  UNL1        0.2457
     20 N          66.5194   93.0728   15.3816 N.am    1  UNL1       -0.3252
     21 O          64.6271   92.6482   17.1103 O.2     1  UNL1       -0.2703
     22 H          66.9612   92.8526   14.5298 H       1  UNL1        0.1453
     23 H          66.8779   93.7918   15.9506 H       1  UNL1        0.1453
     24 O          64.9339   92.7699   12.8702 O.3     1  UNL1       -0.4790
     25 C          66.0101   92.8491   11.8284 C.3     1  UNL1        0.1661
     26 C          65.7775   93.6275   10.5674 C.3     1  UNL1        0.0472
     27 C          67.3190   92.1498   12.0475 C.3     1  UNL1        0.0472
@<TRIPOS>BOND
     1    13    14    1
     2    14    15    2
     3    15    16    1
     4    16    17    2
     5    17    18    1
     6    18     7    1
     7     7     8   ar
     8     8     9   ar
     9     9    10   ar
    10    10    11   ar
    11    11     1    1
    12     1     2   ar
    13     2     3   ar
    14     3     4   ar
    15     4    19    1
    16    19    20   am
    17    19    21    2
    18     4     5   ar
    19     5    24    1
    20    24    25    1
    21    25    26    1
    22    25    27    1
    23     5     6   ar
    24    11    12   ar
    25    18    14    1
    26    12     7   ar
    27     6     1   ar
    28    20    22    1
    29    20    23    1
@<TRIPOS>MOLECULE
*****
 27 29 0 0 0
SMALL
GASTEIGER

@<TRIPOS>ATOM
      1 C          63.7782   87.4858   13.5465 C.ar    1  UNL1        0.0045
      2 C          64.1801   86.9166   14.8748 C.ar    1  UNL1        0.0004
      3 C          64.0125   85.4505   15.1442 C.ar    1  UNL1        0.0076
      4 C          63.4429   84.5537   14.0853 C.ar    1  UNL1        0.0870
      5 C          63.0410   85.1229   12.7570 C.ar    1  UNL1        0.1427
      6 C          63.2087   86.5890   12.4876 C.ar    1  UNL1        0.0371
      7 C          65.1156   91.2144   13.7896 C.ar    1  UNL1        0.0077
      8 C          64.2813   91.8839   12.7382 C.ar    1  UNL1        0.0953
      9 N          63.2792   91.0874   11.9562 N.ar    1  UNL1       -0.2426
     10 C          63.1116   89.6214   12.2256 C.ar    1  UNL1        0.0988
     11 C          63.9459   88.9518   13.2770 C.ar    1  UNL1        0.0190
     12 C          64.9479   89.7483   14.0590 C.ar    1  UNL1       -0.0005
     13 C          64.7493   92.2812   16.8519 C.3     1  UNL1        0.0499
     14 C          65.9493   92.5012   15.9792 C.2     1  UNL1        0.0681
     15 N          67.1916   93.2502   16.3609 N.2     1  UNL1       -0.1563
     16 N          68.1278   93.2227   15.1892 N.2     1  UNL1       -0.1510
     17 C          67.4641   92.4568   14.0834 C.2     1  UNL1        0.1054
     18 C          66.1177   92.0108   14.5716 C.3     1  UNL1        0.1047
     19 C          63.2752   83.0876   14.3547 C.2     1  UNL1        0.2457
     20 N          62.1322   82.3376   13.7376 N.am    1  UNL1       -0.3252
     21 O          64.2506   82.3716   15.2412 O.2     1  UNL1       -0.2703
     22 H          61.4920   82.8075   13.1558 H       1  UNL1        0.1453
     23 H          62.0222   81.3754   13.9145 H       1  UNL1        0.1453
     24 O          62.4714   84.2261   11.6980 O.3     1  UNL1       -0.4790
     25 C          63.2783   83.9025   10.4757 C.3     1  UNL1        0.1661
     26 C          63.1688   84.7664    9.2543 C.3     1  UNL1        0.0472
     27 C          64.1948   82.7150   10.4747 C.3     1  UNL1        0.0472
@<TRIPOS>BOND
     1    13    14    1
     2    14    15    2
     3    15    16    1
     4    16    17    2
     5    17    18    1
     6    18     7    1
     7     7     8   ar
     8     8     9   ar
     9     9    10   ar
    10    10    11   ar
    11    11     1    1
    12     1     2   ar
    13     2     3   ar
    14     3     4   ar
    15     4    19    1
    16    19    20   am
    17    19    21    2
    18     4     5   ar
    19     5    24    1
    20    24    25    1
    21    25    26    1
    22    25    27    1
    23     5     6   ar
    24    11    12   ar
    25    18    14    1
    26    12     7   ar
    27     6     1   ar
    28    20    22    1
    29    20    23    1
@<TRIPOS>MOLECULE
*****
 27 29 0 0 0
SMALL
GASTEIGER

@<TRIPOS>ATOM
      1 C          63.7576   88.9209   13.1232 C.ar    1  UNL1        0.0045
      2 C          64.2472   88.6844   14.5211 C.ar    1  UNL1        0.0004
      3 C          64.9186   89.7918   15.2781 C.ar    1  UNL1        0.0076
      4 C          65.1002   91.1357   14.6371 C.ar    1  UNL1        0.0870
      5 C          64.6105   91.3722   13.2391 C.ar    1  UNL1        0.1427
      6 C          63.9392   90.2648   12.4822 C.ar    1  UNL1        0.0371
      7 C          61.5268   87.0255   10.4435 C.ar    1  UNL1        0.0077
      8 C          61.7436   85.5987   10.8524 C.ar    1  UNL1        0.0953
      9 N          62.6317   85.2793   12.0182 N.ar    1  UNL1       -0.2426
     10 C          63.3030   86.3867   12.7751 C.ar    1  UNL1        0.0988
     11 C          63.0862   87.8135   12.3663 C.ar    1  UNL1        0.0190
     12 C          62.1981   88.1329   11.2004 C.ar    1  UNL1       -0.0005
     13 C          60.2898   89.9577    9.7211 C.3     1  UNL1        0.0499
     14 C          60.0700   88.6927    8.9456 C.2     1  UNL1        0.0681
     15 N          59.2431   88.5534    7.7019 N.2     1  UNL1       -0.1563
     16 N          59.3006   87.1195    7.2652 N.2     1  UNL1       -0.1510
     17 C          60.1631   86.3726    8.2391 C.2     1  UNL1        0.1054
     18 C          60.6386   87.3449    9.2776 C.3     1  UNL1        0.1047
     19 C          65.7716   92.2431   15.3940 C.2     1  UNL1        0.2457
     20 N          65.1778   92.7411   16.6783 N.am    1  UNL1       -0.3252
     21 O          67.0366   92.8526   14.8666 O.2     1  UNL1       -0.2703
     22 H          64.3475   92.3411   17.0245 H       1  UNL1        0.1453
     23 H          65.6185   93.4679   17.1751 H       1  UNL1        0.1453
     24 O          64.7922   92.7162   12.5981 O.3     1  UNL1       -0.4790
     25 C          65.8472   92.9106   11.5497 C.3     1  UNL1        0.1661
     26 C          65.6281   93.8941   10.4385 C.3     1  UNL1        0.0472
     27 C          67.1214   92.1216   11.6125 C.3     1  UNL1        0.0472
@<TRIPOS>BOND
     1    13    14    1
     2    14    15    2
     3    15    16    1
     4    16    17    2
     5    17    18    1
     6    18     7    1
     7     7     8   ar
     8     8     9   ar
     9     9    10   ar
    10    10    11   ar
    11    11     1    1
    12     1     2   ar
    13     2     3   ar
    14     3     4   ar
    15     4    19    1
    16    19    20   am
    17    19    21    2
    18     4     5   ar
    19     5    24    1
    20    24    25    1
    21    25    26    1
    22    25    27    1
    23     5     6   ar
    24    11    12   ar
    25    18    14    1
    26    12     7   ar
    27     6     1   ar
    28    20    22    1
    29    20    23    1
