@<TRIPOS>MOLECULE
*****
 38 42 0 0 0
SMALL
GASTEIGER

@<TRIPOS>ATOM
      1 C          64.1819   88.5799   14.3391 C.3     1  UNL1        0.2330
      2 C          63.7869   87.7820   15.5463 C.ar    1  UNL1        0.0327
      3 C          63.1562   88.4653   16.7234 C.ar    1  UNL1       -0.0196
      4 C          62.9205   89.9463   16.6932 C.3     1  UNL1        0.0309
      5 C          62.7612   87.6675   17.9307 C.ar    1  UNL1        0.0162
      6 C          62.9970   86.1864   17.9608 C.ar    1  UNL1        0.0982
      7 N          63.6276   85.5032   16.7838 N.ar    1  UNL1       -0.2464
      8 C          64.0226   86.3010   15.5765 C.ar    1  UNL1        0.0811
      9 C          64.6532   85.6178   14.3995 C.3     1  UNL1        0.1545
     10 N          63.8189   84.7612   13.4938 N.ar    1  UNL1       -0.2884
     11 C          63.2562   85.3350   12.2273 C.ar    1  UNL1        0.0787
     12 C          62.4219   84.4785   11.3216 C.ar    1  UNL1        0.0188
     13 C          62.1502   83.0481   11.6826 C.ar    1  UNL1        0.0102
     14 C          62.7128   82.4743   12.9491 C.ar    1  UNL1        0.1274
     15 C          63.5472   83.3309   13.8548 C.ar    1  UNL1        0.2651
     16 O          64.1098   82.7571   15.1214 O.2     1  UNL1       -0.2670
     17 C          62.4411   81.0440   13.3101 C.3     1  UNL1        0.4230
     18 F          62.1695   79.6136   13.6710 F       1  UNL1       -0.1657
     19 F          63.4892   80.5985   12.3338 F       1  UNL1       -0.1657
     20 F          61.3931   81.4894   14.2864 F       1  UNL1       -0.1657
     21 O          63.1724   89.4520   13.6533 O.3     1  UNL1       -0.4691
     22 C          66.7444   92.7402   16.0364 C.3     1  UNL1        0.0521
     23 C          66.1821   92.6459   14.6490 C.ar    1  UNL1        0.0595
     24 C          66.6230   93.6162   13.5934 C.ar    1  UNL1        0.0162
     25 C          66.0607   93.5219   12.2061 C.ar    1  UNL1        0.0201
     26 C          65.0574   92.4572   11.8741 C.ar    1  UNL1        0.0221
     27 C          64.4951   92.3629   10.4868 C.ar    1  UNL1        0.0017
     28 C          63.4919   91.2983   10.1549 C.ar    1  UNL1        0.0032
     29 C          63.0510   90.3280   11.2104 C.ar    1  UNL1        0.0385
     30 C          63.6133   90.4223   12.5978 C.ar    1  UNL1        0.1565
     31 C          64.6165   91.4869   12.9297 C.ar    1  UNL1        0.1147
     32 N          65.1789   91.5813   14.3171 N.ar    1  UNL1       -0.2466
     33 C          66.5015   94.4922   11.1505 C.ar    1  UNL1        0.0796
     34 C          66.1333   95.9445   11.0788 C.ar    1  UNL1        0.0412
     35 C          66.7923   96.5304    9.8653 C.ar    1  UNL1        0.1217
     36 N          67.5678   95.4402    9.1871 N.ar    1  UNL1       -0.1676
     37 N          67.3881   94.1805    9.9814 N.ar    1  UNL1       -0.2488
     38 C          67.9894   92.8438    9.6625 C.3     1  UNL1        0.1537
@<TRIPOS>BOND
     1    22    23    1
     2    23    24   ar
     3    24    25   ar
     4    25    33    1
     5    33    34   ar
     6    34    35   ar
     7    35    36   ar
     8    36    37   ar
     9    37    38    1
    10    25    26   ar
    11    26    27   ar
    12    27    28   ar
    13    28    29   ar
    14    29    30   ar
    15    30    21    1
    16    21     1    1
    17     1     2    1
    18     2     3   ar
    19     3     4    1
    20     3     5   ar
    21     5     6   ar
    22     6     7   ar
    23     7     8   ar
    24     8     9    1
    25     9    10    1
    26    10    11   ar
    27    11    12   ar
    28    12    13   ar
    29    13    14   ar
    30    14    17    1
    31    17    18    1
    32    17    19    1
    33    17    20    1
    34    14    15   ar
    35    15    16    2
    36    30    31   ar
    37    31    32   ar
    38    32    23   ar
    39    37    33   ar
    40    31    26   ar
    41     8     2   ar
    42    15    10   ar
@<TRIPOS>MOLECULE
*****
 38 42 0 0 0
SMALL
GASTEIGER

@<TRIPOS>ATOM
      1 C          64.2212   88.6617   14.4990 C.3     1  UNL1        0.2330
      2 C          63.7913   87.7470   15.6073 C.ar    1  UNL1        0.0327
      3 C          63.0922   88.3049   16.8116 C.ar    1  UNL1       -0.0196
      4 C          62.8232   89.7774   16.9075 C.3     1  UNL1        0.0309
      5 C          62.6623   87.3901   17.9199 C.ar    1  UNL1        0.0162
      6 C          62.9313   85.9175   17.8240 C.ar    1  UNL1        0.0982
      7 N          63.6303   85.3597   16.6197 N.ar    1  UNL1       -0.2464
      8 C          64.0603   86.2745   15.5114 C.ar    1  UNL1        0.0811
      9 C          64.7593   85.7167   14.3072 C.3     1  UNL1        0.1545
     10 N          63.9918   84.9128   13.2998 N.ar    1  UNL1       -0.2884
     11 C          64.0088   83.4144   13.3658 C.ar    1  UNL1        0.0787
     12 C          63.2413   82.6105   12.3584 C.ar    1  UNL1        0.0188
     13 C          62.4568   83.3051   11.2850 C.ar    1  UNL1        0.0102
     14 C          62.4398   84.8036   11.2190 C.ar    1  UNL1        0.1274
     15 C          63.2073   85.6074   12.2264 C.ar    1  UNL1        0.2651
     16 O          63.1903   87.1059   12.1604 O.2     1  UNL1       -0.2670
     17 C          61.6553   85.4982   10.1457 C.3     1  UNL1        0.4230
     18 F          60.8709   86.1928    9.0723 F       1  UNL1       -0.1657
     19 F          60.7303   86.0590   11.1847 F       1  UNL1       -0.1657
     20 F          62.5804   84.9373    9.1066 F       1  UNL1       -0.1657
     21 O          63.2621   89.6748   13.9479 O.3     1  UNL1       -0.4691
     22 C          66.9937   92.9822   16.0422 C.3     1  UNL1        0.0521
     23 C          66.3803   92.8352   14.6812 C.ar    1  UNL1        0.0595
     24 C          66.8064   93.7418   13.5647 C.ar    1  UNL1        0.0162
     25 C          66.1930   93.5949   12.2038 C.ar    1  UNL1        0.0201
     26 C          65.1535   92.5414   11.9593 C.ar    1  UNL1        0.0221
     27 C          64.5402   92.3945   10.5984 C.ar    1  UNL1        0.0017
     28 C          63.5008   91.3410   10.3540 C.ar    1  UNL1        0.0032
     29 C          63.0748   90.4344   11.4705 C.ar    1  UNL1        0.0385
     30 C          63.6881   90.5813   12.8314 C.ar    1  UNL1        0.1565
     31 C          64.7275   91.6348   13.0758 C.ar    1  UNL1        0.1147
     32 N          65.3409   91.7818   14.4368 N.ar    1  UNL1       -0.2466
     33 C          66.6191   94.5015   11.0873 C.ar    1  UNL1        0.0796
     34 C          66.2693   95.9535   10.9482 C.ar    1  UNL1        0.0412
     35 C          66.9037   96.4646    9.6888 C.ar    1  UNL1        0.1217
     36 N          67.6457   95.3285    9.0494 N.ar    1  UNL1       -0.1676
     37 N          67.4697   94.1153    9.9137 N.ar    1  UNL1       -0.2488
     38 C          68.0437   92.7546    9.6507 C.3     1  UNL1        0.1537
@<TRIPOS>BOND
     1    22    23    1
     2    23    24   ar
     3    24    25   ar
     4    25    33    1
     5    33    34   ar
     6    34    35   ar
     7    35    36   ar
     8    36    37   ar
     9    37    38    1
    10    25    26   ar
    11    26    27   ar
    12    27    28   ar
    13    28    29   ar
    14    29    30   ar
    15    30    21    1
    16    21     1    1
    17     1     2    1
    18     2     3   ar
    19     3     4    1
    20     3     5   ar
    21     5     6   ar
    22     6     7   ar
    23     7     8   ar
    24     8     9    1
    25     9    10    1
    26    10    11   ar
    27    11    12   ar
    28    12    13   ar
    29    13    14   ar
    30    14    17    1
    31    17    18    1
    32    17    19    1
    33    17    20    1
    34    14    15   ar
    35    15    16    2
    36    30    31   ar
    37    31    32   ar
    38    32    23   ar
    39    37    33   ar
    40    31    26   ar
    41     8     2   ar
    42    15    10   ar
@<TRIPOS>MOLECULE
*****
 38 42 0 0 0
SMALL
GASTEIGER

@<TRIPOS>ATOM
      1 C          64.5501   88.4922   14.9253 C.3     1  UNL1        0.2330
      2 C          63.8278   87.4702   15.7522 C.ar    1  UNL1        0.0327
      3 C          63.0502   87.8975   16.9617 C.ar    1  UNL1       -0.0196
      4 C          62.9949   89.3469   17.3442 C.3     1  UNL1        0.0309
      5 C          62.3280   86.8755   17.7886 C.ar    1  UNL1        0.0162
      6 C          62.3834   85.4261   17.4061 C.ar    1  UNL1        0.0982
      7 N          63.1609   84.9988   16.1966 N.ar    1  UNL1       -0.2464
      8 C          63.8832   86.0208   15.3697 C.ar    1  UNL1        0.0811
      9 C          64.6607   85.5935   14.1603 C.3     1  UNL1        0.1545
     10 N          63.9525   84.9657   12.9965 N.ar    1  UNL1       -0.2884
     11 C          64.0399   83.4846   12.7757 C.ar    1  UNL1        0.0787
     12 C          63.3317   82.8567   11.6120 C.ar    1  UNL1        0.0188
     13 C          62.5360   83.7099   10.6691 C.ar    1  UNL1        0.0102
     14 C          62.4486   85.1910   10.8899 C.ar    1  UNL1        0.1274
     15 C          63.1569   85.8189   12.0537 C.ar    1  UNL1        0.2651
     16 O          63.0695   87.3000   12.2745 O.2     1  UNL1       -0.2670
     17 C          61.6531   86.0442    9.9471 C.3     1  UNL1        0.4230
     18 F          60.8575   86.8974    9.0042 F       1  UNL1       -0.1657
     19 F          62.6850   85.8276    8.8803 F       1  UNL1       -0.1657
     20 F          60.6211   86.2608   11.0138 F       1  UNL1       -0.1657
     21 O          64.1950   89.9442   15.0493 O.3     1  UNL1       -0.4691
     22 C          62.2284   90.5046   10.0424 C.3     1  UNL1        0.0521
     23 C          63.3581   91.1444   10.7938 C.ar    1  UNL1        0.0595
     24 C          64.2088   92.1842   10.1267 C.ar    1  UNL1        0.0162
     25 C          65.3385   92.8239   10.8780 C.ar    1  UNL1        0.0201
     26 C          65.6175   92.4239   12.2966 C.ar    1  UNL1        0.0221
     27 C          66.7472   93.0636   13.0479 C.ar    1  UNL1        0.0017
     28 C          67.0261   92.6636   14.4663 C.ar    1  UNL1        0.0032
     29 C          66.1754   91.6238   15.1335 C.ar    1  UNL1        0.0385
     30 C          65.0457   90.9840   14.3822 C.ar    1  UNL1        0.1565
     31 C          64.7668   91.3841   12.9637 C.ar    1  UNL1        0.1147
     32 N          63.6371   90.7443   12.2123 N.ar    1  UNL1       -0.2466
     33 C          66.1892   93.8637   10.2108 C.ar    1  UNL1        0.0796
     34 C          65.8757   95.3271   10.1094 C.ar    1  UNL1        0.0412
     35 C          66.9956   95.9905    9.3639 C.ar    1  UNL1        0.1217
     36 N          68.0012   94.9372    9.0045 N.ar    1  UNL1       -0.1676
     37 N          67.5029   93.6228    9.5280 N.ar    1  UNL1       -0.2488
     38 C          68.1964   92.2997    9.3924 C.3     1  UNL1        0.1537
@<TRIPOS>BOND
     1    22    23    1
     2    23    24   ar
     3    24    25   ar
     4    25    33    1
     5    33    34   ar
     6    34    35   ar
     7    35    36   ar
     8    36    37   ar
     9    37    38    1
    10    25    26   ar
    11    26    27   ar
    12    27    28   ar
    13    28    29   ar
    14    29    30   ar
    15    30    21    1
    16    21     1    1
    17     1     2    1
    18     2     3   ar
    19     3     4    1
    20     3     5   ar
    21     5     6   ar
    22     6     7   ar
    23     7     8   ar
    24     8     9    1
    25     9    10    1
    26    10    11   ar
    27    11    12   ar
    28    12    13   ar
    29    13    14   ar
    30    14    17    1
    31    17    18    1
    32    17    19    1
    33    17    20    1
    34    14    15   ar
    35    15    16    2
    36    30    31   ar
    37    31    32   ar
    38    32    23   ar
    39    37    33   ar
    40    31    26   ar
    41     8     2   ar
    42    15    10   ar
@<TRIPOS>MOLECULE
*****
 38 42 0 0 0
SMALL
GASTEIGER

@<TRIPOS>ATOM
      1 C          61.2194   86.5029   11.2717 C.3     1  UNL1        0.2330
      2 C          61.4778   85.9894    9.8862 C.ar    1  UNL1        0.0327
      3 C          60.5232   86.3143    8.7757 C.ar    1  UNL1       -0.0196
      4 C          59.3102   87.1526    9.0506 C.3     1  UNL1        0.0309
      5 C          60.7817   85.8007    7.3903 C.ar    1  UNL1        0.0162
      6 C          61.9948   84.9623    7.1154 C.ar    1  UNL1        0.0982
      7 N          62.9493   84.6374    8.2259 N.ar    1  UNL1       -0.2464
      8 C          62.6909   85.1510    9.6113 C.ar    1  UNL1        0.0811
      9 C          63.6454   84.8262   10.7218 C.3     1  UNL1        0.1545
     10 N          63.1706   84.0544   11.9173 N.ar    1  UNL1       -0.2884
     11 C          62.7250   82.6306   11.7621 C.ar    1  UNL1        0.0787
     12 C          62.2502   81.8588   12.9575 C.ar    1  UNL1        0.0188
     13 C          62.2210   82.5108   14.3081 C.ar    1  UNL1        0.0102
     14 C          62.6667   83.9347   14.4632 C.ar    1  UNL1        0.1274
     15 C          63.1415   84.7065   13.2678 C.ar    1  UNL1        0.2651
     16 O          63.5871   86.1303   13.4229 O.2     1  UNL1       -0.2670
     17 C          62.6375   84.5868   15.8137 C.3     1  UNL1        0.4230
     18 F          62.6084   85.2388   17.1642 F       1  UNL1       -0.1657
     19 F          61.1659   84.8345   15.6624 F       1  UNL1       -0.1657
     20 F          64.1092   84.3390   15.9651 F       1  UNL1       -0.1657
     21 O          60.7450   87.9116   11.4730 O.3     1  UNL1       -0.4691
     22 C          63.5712   89.1232   15.9223 C.3     1  UNL1        0.0521
     23 C          63.5304   89.6833   14.5313 C.ar    1  UNL1        0.0595
     24 C          64.4181   90.8339   14.1598 C.ar    1  UNL1        0.0162
     25 C          64.3774   91.3940   12.7689 C.ar    1  UNL1        0.0201
     26 C          63.4489   90.8034   11.7494 C.ar    1  UNL1        0.0221
     27 C          63.4082   91.3635   10.3586 C.ar    1  UNL1        0.0017
     28 C          62.4797   90.7730    9.3392 C.ar    1  UNL1        0.0032
     29 C          61.5920   89.6224    9.7107 C.ar    1  UNL1        0.0385
     30 C          61.6327   89.0623   11.1015 C.ar    1  UNL1        0.1565
     31 C          62.5612   89.6528   12.1209 C.ar    1  UNL1        0.1147
     32 N          62.6020   89.0927   13.5119 N.ar    1  UNL1       -0.2466
     33 C          65.2651   92.5446   12.3974 C.ar    1  UNL1        0.0796
     34 C          65.4074   93.1425   11.0291 C.ar    1  UNL1        0.0412
     35 C          66.3966   94.2668   11.1150 C.ar    1  UNL1        0.1217
     36 N          66.8657   94.3638   12.5365 N.ar    1  UNL1       -0.1676
     37 N          66.1664   93.2995   13.3290 N.ar    1  UNL1       -0.2488
     38 C          66.3382   93.0362   14.7957 C.3     1  UNL1        0.1537
@<TRIPOS>BOND
     1    22    23    1
     2    23    24   ar
     3    24    25   ar
     4    25    33    1
     5    33    34   ar
     6    34    35   ar
     7    35    36   ar
     8    36    37   ar
     9    37    38    1
    10    25    26   ar
    11    26    27   ar
    12    27    28   ar
    13    28    29   ar
    14    29    30   ar
    15    30    21    1
    16    21     1    1
    17     1     2    1
    18     2     3   ar
    19     3     4    1
    20     3     5   ar
    21     5     6   ar
    22     6     7   ar
    23     7     8   ar
    24     8     9    1
    25     9    10    1
    26    10    11   ar
    27    11    12   ar
    28    12    13   ar
    29    13    14   ar
    30    14    17    1
    31    17    18    1
    32    17    19    1
    33    17    20    1
    34    14    15   ar
    35    15    16    2
    36    30    31   ar
    37    31    32   ar
    38    32    23   ar
    39    37    33   ar
    40    31    26   ar
    41     8     2   ar
    42    15    10   ar
@<TRIPOS>MOLECULE
*****
 38 42 0 0 0
SMALL
GASTEIGER

@<TRIPOS>ATOM
      1 C          61.6383   88.8882   12.8714 C.3     1  UNL1        0.2330
      2 C          61.1425   88.3089   11.5797 C.ar    1  UNL1        0.0327
      3 C          60.1717   89.0802   10.7355 C.ar    1  UNL1       -0.0196
      4 C          59.6967   90.4308   11.1830 C.3     1  UNL1        0.0309
      5 C          59.6759   88.5010    9.4437 C.ar    1  UNL1        0.0162
      6 C          60.1510   87.1503    8.9962 C.ar    1  UNL1        0.0982
      7 N          61.1217   86.3791    9.8404 N.ar    1  UNL1       -0.2464
      8 C          61.6175   86.9584   11.1321 C.ar    1  UNL1        0.0811
      9 C          62.5883   86.1871   11.9763 C.3     1  UNL1        0.1545
     10 N          62.9564   84.7820   11.6019 N.ar    1  UNL1       -0.2884
     11 C          63.5150   84.4904   10.2406 C.ar    1  UNL1        0.0787
     12 C          63.8831   83.0854    9.8662 C.ar    1  UNL1        0.0188
     13 C          63.6927   81.9718   10.8530 C.ar    1  UNL1        0.0102
     14 C          63.1342   82.2633   12.2143 C.ar    1  UNL1        0.1274
     15 C          62.7661   83.6685   12.5887 C.ar    1  UNL1        0.2651
     16 O          62.2075   83.9600   13.9500 O.2     1  UNL1       -0.2670
     17 C          62.9438   81.1498   13.2011 C.3     1  UNL1        0.4230
     18 F          62.7534   80.0364   14.1879 F       1  UNL1       -0.1657
     19 F          61.4622   81.2009   12.9729 F       1  UNL1       -0.1657
     20 F          64.4254   81.0988   13.4294 F       1  UNL1       -0.1657
     21 O          63.0476   89.3909   12.9760 O.3     1  UNL1       -0.4691
     22 C          66.5140   92.3750   15.8622 C.3     1  UNL1        0.0521
     23 C          66.0068   92.4429   14.4521 C.ar    1  UNL1        0.0595
     24 C          66.4860   93.5281   13.5341 C.ar    1  UNL1        0.0162
     25 C          65.9789   93.5959   12.1241 C.ar    1  UNL1        0.0201
     26 C          64.9925   92.5786   11.6320 C.ar    1  UNL1        0.0221
     27 C          64.4854   92.6464   10.2220 C.ar    1  UNL1        0.0017
     28 C          63.4990   91.6291    9.7300 C.ar    1  UNL1        0.0032
     29 C          63.0198   90.5440   10.6480 C.ar    1  UNL1        0.0385
     30 C          63.5269   90.4761   12.0580 C.ar    1  UNL1        0.1565
     31 C          64.5133   91.4934   12.5500 C.ar    1  UNL1        0.1147
     32 N          65.0204   91.4256   13.9601 N.ar    1  UNL1       -0.2466
     33 C          66.4582   94.6811   11.2061 C.ar    1  UNL1        0.0796
     34 C          66.0911   96.1330   11.2901 C.ar    1  UNL1        0.0412
     35 C          66.7947   96.8542   10.1788 C.ar    1  UNL1        0.1217
     36 N          67.5967   95.8479    9.4080 N.ar    1  UNL1       -0.1676
     37 N          67.3887   94.5049   10.0429 N.ar    1  UNL1       -0.2488
     38 C          68.0034   93.2125    9.5934 C.3     1  UNL1        0.1537
@<TRIPOS>BOND
     1    22    23    1
     2    23    24   ar
     3    24    25   ar
     4    25    33    1
     5    33    34   ar
     6    34    35   ar
     7    35    36   ar
     8    36    37   ar
     9    37    38    1
    10    25    26   ar
    11    26    27   ar
    12    27    28   ar
    13    28    29   ar
    14    29    30   ar
    15    30    21    1
    16    21     1    1
    17     1     2    1
    18     2     3   ar
    19     3     4    1
    20     3     5   ar
    21     5     6   ar
    22     6     7   ar
    23     7     8   ar
    24     8     9    1
    25     9    10    1
    26    10    11   ar
    27    11    12   ar
    28    12    13   ar
    29    13    14   ar
    30    14    17    1
    31    17    18    1
    32    17    19    1
    33    17    20    1
    34    14    15   ar
    35    15    16    2
    36    30    31   ar
    37    31    32   ar
    38    32    23   ar
    39    37    33   ar
    40    31    26   ar
    41     8     2   ar
    42    15    10   ar
@<TRIPOS>MOLECULE
*****
 38 42 0 0 0
SMALL
GASTEIGER

@<TRIPOS>ATOM
      1 C          64.2754   88.6988   14.6934 C.3     1  UNL1        0.2330
      2 C          63.7588   87.6745   15.6598 C.ar    1  UNL1        0.0327
      3 C          63.0695   88.1113   16.9184 C.ar    1  UNL1       -0.0196
      4 C          62.8969   89.5724   17.2107 C.3     1  UNL1        0.0309
      5 C          62.5529   87.0870   17.8848 C.ar    1  UNL1        0.0162
      6 C          62.7255   85.6259   17.5925 C.ar    1  UNL1        0.0982
      7 N          63.4148   85.1891   16.3339 N.ar    1  UNL1       -0.2464
      8 C          63.9314   86.2135   15.3675 C.ar    1  UNL1        0.0811
      9 C          64.6207   85.7767   14.1089 C.3     1  UNL1        0.1545
     10 N          63.8207   85.2100   12.9736 N.ar    1  UNL1       -0.2884
     11 C          63.0492   86.1251   12.0695 C.ar    1  UNL1        0.0787
     12 C          62.2492   85.5584   10.9342 C.ar    1  UNL1        0.0188
     13 C          62.2207   84.0765   10.7030 C.ar    1  UNL1        0.0102
     14 C          62.9921   83.1614   11.6072 C.ar    1  UNL1        0.1274
     15 C          63.7921   83.7282   12.7425 C.ar    1  UNL1        0.2651
     16 O          64.5636   82.8131   13.6466 O.2     1  UNL1       -0.2670
     17 C          62.9636   81.6797   11.3760 C.3     1  UNL1        0.4230
     18 F          62.9351   80.1979   11.1449 F       1  UNL1       -0.1657
     19 F          64.0661   81.8156   10.3681 F       1  UNL1       -0.1657
     20 F          61.8611   81.5437   12.3839 F       1  UNL1       -0.1657
     21 O          64.4783   90.1163   15.1402 O.3     1  UNL1       -0.4691
     22 C          62.1698   90.7168   10.2863 C.3     1  UNL1        0.0521
     23 C          63.4232   91.2495   10.9150 C.ar    1  UNL1        0.0595
     24 C          64.3250   92.1599   10.1352 C.ar    1  UNL1        0.0162
     25 C          65.5784   92.6925   10.7638 C.ar    1  UNL1        0.0201
     26 C          65.9301   92.3148   12.1722 C.ar    1  UNL1        0.0221
     27 C          67.1836   92.8474   12.8008 C.ar    1  UNL1        0.0017
     28 C          67.5352   92.4697   14.2092 C.ar    1  UNL1        0.0032
     29 C          66.6335   91.5593   14.9890 C.ar    1  UNL1        0.0385
     30 C          65.3801   91.0267   14.3604 C.ar    1  UNL1        0.1565
     31 C          65.0284   91.4044   12.9520 C.ar    1  UNL1        0.1147
     32 N          63.7749   90.8718   12.3233 N.ar    1  UNL1       -0.2466
     33 C          66.4801   93.6029    9.9840 C.ar    1  UNL1        0.0796
     34 C          67.6652   93.1817    9.1666 C.ar    1  UNL1        0.0412
     35 C          68.2726   94.4128    8.5621 C.ar    1  UNL1        0.1217
     36 N          67.4630   95.5949    9.0059 N.ar    1  UNL1       -0.1676
     37 N          66.3552   95.0944    9.8847 N.ar    1  UNL1       -0.2488
     38 C          65.3065   95.9374   10.5477 C.3     1  UNL1        0.1537
@<TRIPOS>BOND
     1    22    23    1
     2    23    24   ar
     3    24    25   ar
     4    25    33    1
     5    33    34   ar
     6    34    35   ar
     7    35    36   ar
     8    36    37   ar
     9    37    38    1
    10    25    26   ar
    11    26    27   ar
    12    27    28   ar
    13    28    29   ar
    14    29    30   ar
    15    30    21    1
    16    21     1    1
    17     1     2    1
    18     2     3   ar
    19     3     4    1
    20     3     5   ar
    21     5     6   ar
    22     6     7   ar
    23     7     8   ar
    24     8     9    1
    25     9    10    1
    26    10    11   ar
    27    11    12   ar
    28    12    13   ar
    29    13    14   ar
    30    14    17    1
    31    17    18    1
    32    17    19    1
    33    17    20    1
    34    14    15   ar
    35    15    16    2
    36    30    31   ar
    37    31    32   ar
    38    32    23   ar
    39    37    33   ar
    40    31    26   ar
    41     8     2   ar
    42    15    10   ar
@<TRIPOS>MOLECULE
*****
 38 42 0 0 0
SMALL
GASTEIGER

@<TRIPOS>ATOM
      1 C          61.8558   88.9851   11.3863 C.3     1  UNL1        0.2330
      2 C          61.3036   88.1047   10.3047 C.ar    1  UNL1        0.0327
      3 C          60.3127   88.6554    9.3223 C.ar    1  UNL1       -0.0196
      4 C          59.8742   90.0864    9.4216 C.3     1  UNL1        0.0309
      5 C          59.7605   87.7750    8.2406 C.ar    1  UNL1        0.0162
      6 C          60.1991   86.3440    8.1414 C.ar    1  UNL1        0.0982
      7 N          61.1899   85.7933    9.1238 N.ar    1  UNL1       -0.2464
      8 C          61.7421   86.6737   10.2054 C.ar    1  UNL1        0.0811
      9 C          62.7329   86.1231   11.1878 C.3     1  UNL1        0.1545
     10 N          63.0116   84.6497   11.2261 N.ar    1  UNL1       -0.2884
     11 C          63.6739   83.9810   10.0580 C.ar    1  UNL1        0.0787
     12 C          63.9525   82.5077   10.0963 C.ar    1  UNL1        0.0188
     13 C          63.5689   81.7029   11.3026 C.ar    1  UNL1        0.0102
     14 C          62.9066   82.3715   12.4707 C.ar    1  UNL1        0.1274
     15 C          62.6280   83.8449   12.4324 C.ar    1  UNL1        0.2651
     16 O          61.9657   84.5136   13.6004 O.2     1  UNL1       -0.2670
     17 C          62.5230   81.5668   13.6770 C.3     1  UNL1        0.4230
     18 F          62.1394   80.7620   14.8833 F       1  UNL1       -0.1657
     19 F          63.8162   81.9416   14.3382 F       1  UNL1       -0.1657
     20 F          61.2299   81.1920   13.0157 F       1  UNL1       -0.1657
     21 O          61.9832   90.4622   11.1591 O.3     1  UNL1       -0.4691
     22 C          63.0950   89.3243   16.3282 C.3     1  UNL1        0.0521
     23 C          63.7849   90.1325   15.2694 C.ar    1  UNL1        0.0595
     24 C          65.0755   90.8307   15.5808 C.ar    1  UNL1        0.0162
     25 C          65.7654   91.6388   14.5222 C.ar    1  UNL1        0.0201
     26 C          65.1649   91.7488   13.1520 C.ar    1  UNL1        0.0221
     27 C          65.8548   92.5569   12.0933 C.ar    1  UNL1        0.0017
     28 C          65.2542   92.6668   10.7232 C.ar    1  UNL1        0.0032
     29 C          63.9637   91.9686   10.4118 C.ar    1  UNL1        0.0385
     30 C          63.2737   91.1605   11.4705 C.ar    1  UNL1        0.1565
     31 C          63.8743   91.0506   12.8406 C.ar    1  UNL1        0.1147
     32 N          63.1843   90.2424   13.8993 N.ar    1  UNL1       -0.2466
     33 C          67.0560   92.3371   14.8336 C.ar    1  UNL1        0.0796
     34 C          67.2972   93.2741   15.9798 C.ar    1  UNL1        0.0412
     35 C          68.7222   93.7370   15.9081 C.ar    1  UNL1        0.1217
     36 N          69.3617   93.0861   14.7175 N.ar    1  UNL1       -0.1676
     37 N          68.3319   92.2209   14.0535 N.ar    1  UNL1       -0.2488
     38 C          68.5413   91.3860   12.8250 C.3     1  UNL1        0.1537
@<TRIPOS>BOND
     1    22    23    1
     2    23    24   ar
     3    24    25   ar
     4    25    33    1
     5    33    34   ar
     6    34    35   ar
     7    35    36   ar
     8    36    37   ar
     9    37    38    1
    10    25    26   ar
    11    26    27   ar
    12    27    28   ar
    13    28    29   ar
    14    29    30   ar
    15    30    21    1
    16    21     1    1
    17     1     2    1
    18     2     3   ar
    19     3     4    1
    20     3     5   ar
    21     5     6   ar
    22     6     7   ar
    23     7     8   ar
    24     8     9    1
    25     9    10    1
    26    10    11   ar
    27    11    12   ar
    28    12    13   ar
    29    13    14   ar
    30    14    17    1
    31    17    18    1
    32    17    19    1
    33    17    20    1
    34    14    15   ar
    35    15    16    2
    36    30    31   ar
    37    31    32   ar
    38    32    23   ar
    39    37    33   ar
    40    31    26   ar
    41     8     2   ar
    42    15    10   ar
