@<TRIPOS>MOLECULE
*****
 41 44 0 0 0
SMALL
GASTEIGER

@<TRIPOS>ATOM
      1 C          65.6674   92.4637   11.3831 C.ar    1  UNL1        0.1534
      2 C          66.5959   93.0194   12.4218 C.ar    1  UNL1        0.0574
      3 C          66.3271   92.7730   13.8769 C.ar    1  UNL1        0.0888
      4 N          67.2556   93.3287   14.9156 N.ar    1  UNL1       -0.2238
      5 C          66.9868   93.0824   16.3706 C.ar    1  UNL1        0.2000
      6 N          65.7895   92.2804   16.7868 N.ar    1  UNL1       -0.2089
      7 C          64.8610   91.7247   15.7481 C.ar    1  UNL1        0.1353
      8 C          65.1298   91.9710   14.2931 C.ar    1  UNL1        0.0508
      9 C          64.2013   91.4153   13.2543 C.ar    1  UNL1        0.0221
     10 C          64.4701   91.6616   11.7993 C.ar    1  UNL1        0.0852
     11 N          63.5416   91.1059   10.7604 N.am    1  UNL1       -0.2762
     12 C          62.4283   90.1856   11.1649 C.2     1  UNL1        0.2769
     13 O          62.2434   89.8211   12.6082 O.2     1  UNL1       -0.2674
     14 H          63.6629   91.3452    9.8132 H       1  UNL1        0.1553
     15 C          61.4998   89.6299   10.1261 C.2     1  UNL1        0.1905
     16 F          60.4607   90.5121    9.5001 F       1  UNL1       -0.1997
     17 C          61.6104   88.1921    9.7134 C.2     1  UNL1        0.0256
     18 C          60.6820   87.6364    8.6747 C.3     1  UNL1        0.1014
     19 N          60.9453   86.2851    8.0791 N.3     1  UNL1       -0.2665
     20 C          62.2493   85.5913    8.3409 C.3     1  UNL1        0.0899
     21 C          59.9048   85.6276    7.2218 C.3     1  UNL1        0.0899
     22 N          63.6638   90.9226   16.1643 N.pl3   1  UNL1       -0.2978
     23 H          62.8603   91.3782   16.5050 H       1  UNL1        0.1536
     24 C          63.6907   89.4264   16.0614 C.ar    1  UNL1        0.0504
     25 C          64.3250   88.7676   14.8724 C.ar    1  UNL1        0.0178
     26 C          64.3519   87.2714   14.7695 C.ar    1  UNL1        0.0391
     27 C          63.7445   86.4339   15.8556 C.ar    1  UNL1        0.1496
     28 C          63.1102   87.0926   17.0446 C.ar    1  UNL1        0.0928
     29 CL         62.5028   86.2551   18.1308 Cl      1  UNL1       -0.0790
     30 C          63.0833   88.5889   17.1476 C.ar    1  UNL1        0.0291
     31 O          63.7714   84.9377   15.7527 O.3     1  UNL1       -0.4681
     32 C          62.5485   84.1947   15.3027 C.3     1  UNL1        0.2508
     33 C          62.6557   83.1570   14.2250 C.ar    1  UNL1        0.1026
     34 C          63.0207   83.5618   12.8275 C.ar    1  UNL1        0.0185
     35 C          63.1279   82.5241   11.7498 C.ar    1  UNL1        0.0029
     36 C          62.8701   81.0814   12.0695 C.ar    1  UNL1        0.0207
     37 C          62.5051   80.6765   13.4669 C.ar    1  UNL1        0.0986
     38 N          62.3979   81.7143   14.5447 N.ar    1  UNL1       -0.2445
     39 O          65.9362   92.7100    9.9280 O.3     1  UNL1       -0.4742
     40 C          68.3918   92.4214    9.1303 C.3     1  UNL1        0.0512
     41 C          67.2414   93.3110    9.4977 C.3     1  UNL1        0.2056
@<TRIPOS>BOND
     1    40    41    1
     2    41    39    1
     3    39     1    1
     4     1     2   ar
     5     2     3   ar
     6     3     4   ar
     7     4     5   ar
     8     5     6   ar
     9     6     7   ar
    10     7    22    1
    11    22    24    1
    12    24    25   ar
    13    25    26   ar
    14    26    27   ar
    15    27    31    1
    16    31    32    1
    17    32    33    1
    18    33    34   ar
    19    34    35   ar
    20    35    36   ar
    21    36    37   ar
    22    37    38   ar
    23    27    28   ar
    24    28    29    1
    25    28    30   ar
    26     7     8   ar
    27     8     9   ar
    28     9    10   ar
    29    10    11    1
    30    11    12   am
    31    12    13    2
    32    12    15    1
    33    15    16    1
    34    15    17    2
    35    17    18    1
    36    18    19    1
    37    19    20    1
    38    19    21    1
    39    10     1   ar
    40     8     3   ar
    41    30    24   ar
    42    38    33   ar
    43    22    23    1
    44    11    14    1
@<TRIPOS>MOLECULE
*****
 41 44 0 0 0
SMALL
GASTEIGER

@<TRIPOS>ATOM
      1 C          63.5943   85.1596   15.9231 C.ar    1  UNL1        0.1534
      2 C          63.1689   83.7213   15.9123 C.ar    1  UNL1        0.0574
      3 C          63.2129   82.9357   14.6352 C.ar    1  UNL1        0.0888
      4 N          62.7875   81.4974   14.6244 N.ar    1  UNL1       -0.2238
      5 C          62.8315   80.7119   13.3473 C.ar    1  UNL1        0.2000
      6 N          63.3008   81.3647   12.0810 N.ar    1  UNL1       -0.2089
      7 C          63.7262   82.8031   12.0918 C.ar    1  UNL1        0.1353
      8 C          63.6822   83.5886   13.3689 C.ar    1  UNL1        0.0508
      9 C          64.1076   85.0270   13.3797 C.ar    1  UNL1        0.0221
     10 C          64.0637   85.8125   14.6568 C.ar    1  UNL1        0.0852
     11 N          64.4890   87.2509   14.6677 N.am    1  UNL1       -0.2762
     12 C          63.9546   88.1989   13.6354 C.2     1  UNL1        0.2769
     13 O          62.9947   87.7084   12.5922 O.2     1  UNL1       -0.2674
     14 H          65.1190   87.5728   15.3524 H       1  UNL1        0.1553
     15 C          64.3799   89.6372   13.6462 C.2     1  UNL1        0.1905
     16 F          64.2043   90.4805   12.4182 F       1  UNL1       -0.1997
     17 C          64.9810   90.2323   14.8850 C.2     1  UNL1        0.0256
     18 C          65.4063   91.6707   14.8958 C.3     1  UNL1        0.1014
     19 N          66.8621   92.0229   14.8153 N.3     1  UNL1       -0.2665
     20 C          67.5817   91.9425   13.5015 C.3     1  UNL1        0.0899
     21 C          67.5984   92.4555   16.0484 C.3     1  UNL1        0.0899
     22 N          64.1956   83.4559   10.8255 N.pl3   1  UNL1       -0.2978
     23 H          65.1277   83.3428   10.5296 H       1  UNL1        0.1536
     24 C          63.2447   84.2811   10.0101 C.ar    1  UNL1        0.0504
     25 C          62.2759   85.2015   10.6916 C.ar    1  UNL1        0.0178
     26 C          61.3250   86.0267    9.8762 C.ar    1  UNL1        0.0391
     27 C          61.3430   85.9316    8.3793 C.ar    1  UNL1        0.1496
     28 C          62.3118   85.0113    7.6978 C.ar    1  UNL1        0.0928
     29 CL         62.3298   84.9162    6.2009 Cl      1  UNL1       -0.0790
     30 C          63.2627   84.1861    8.5132 C.ar    1  UNL1        0.0291
     31 O          60.3921   86.7569    7.5639 O.3     1  UNL1       -0.4681
     32 C          59.4831   87.7403    8.2395 C.3     1  UNL1        0.2508
     33 C          59.9940   88.5759    9.3755 C.ar    1  UNL1        0.1026
     34 C          61.1485   89.5091    9.1602 C.ar    1  UNL1        0.0185
     35 C          61.6594   90.3447   10.2962 C.ar    1  UNL1        0.0029
     36 C          61.0159   90.2473   11.6477 C.ar    1  UNL1        0.0207
     37 C          59.8614   89.3142   11.8630 C.ar    1  UNL1        0.0986
     38 N          59.3504   88.4784   10.7270 N.ar    1  UNL1       -0.2445
     39 O          63.5503   85.9452   17.2003 O.3     1  UNL1       -0.4742
     40 C          62.9450   88.4715   17.2342 C.3     1  UNL1        0.0512
     41 C          62.5352   87.0355   17.3755 C.3     1  UNL1        0.2056
@<TRIPOS>BOND
     1    40    41    1
     2    41    39    1
     3    39     1    1
     4     1     2   ar
     5     2     3   ar
     6     3     4   ar
     7     4     5   ar
     8     5     6   ar
     9     6     7   ar
    10     7    22    1
    11    22    24    1
    12    24    25   ar
    13    25    26   ar
    14    26    27   ar
    15    27    31    1
    16    31    32    1
    17    32    33    1
    18    33    34   ar
    19    34    35   ar
    20    35    36   ar
    21    36    37   ar
    22    37    38   ar
    23    27    28   ar
    24    28    29    1
    25    28    30   ar
    26     7     8   ar
    27     8     9   ar
    28     9    10   ar
    29    10    11    1
    30    11    12   am
    31    12    13    2
    32    12    15    1
    33    15    16    1
    34    15    17    2
    35    17    18    1
    36    18    19    1
    37    19    20    1
    38    19    21    1
    39    10     1   ar
    40     8     3   ar
    41    30    24   ar
    42    38    33   ar
    43    22    23    1
    44    11    14    1
@<TRIPOS>MOLECULE
*****
 41 44 0 0 0
SMALL
GASTEIGER

@<TRIPOS>ATOM
      1 C          63.6109   85.6179   15.7095 C.ar    1  UNL1        0.1534
      2 C          63.0412   84.2322   15.6377 C.ar    1  UNL1        0.0574
      3 C          62.8097   83.5845   14.3047 C.ar    1  UNL1        0.0888
      4 N          62.2400   82.1988   14.2329 N.ar    1  UNL1       -0.2238
      5 C          62.0086   81.5512   12.8999 C.ar    1  UNL1        0.2000
      6 N          62.3468   82.2893   11.6386 N.ar    1  UNL1       -0.2089
      7 C          62.9165   83.6750   11.7104 C.ar    1  UNL1        0.1353
      8 C          63.1480   84.3226   13.0434 C.ar    1  UNL1        0.0508
      9 C          63.7177   85.7084   13.1152 C.ar    1  UNL1        0.0221
     10 C          63.9492   86.3560   14.4482 C.ar    1  UNL1        0.0852
     11 N          64.5189   87.7418   14.5200 N.am    1  UNL1       -0.2762
     12 C          63.9473   88.8330   13.6641 C.2     1  UNL1        0.2769
     13 O          62.8059   88.5384   12.7364 O.2     1  UNL1       -0.2674
     14 H          65.2680   87.9352   15.1289 H       1  UNL1        0.1553
     15 C          64.5169   90.2187   13.7359 C.2     1  UNL1        0.1905
     16 F          64.5506   91.0802   12.5084 F       1  UNL1       -0.1997
     17 C          65.0529   90.7429   15.0350 C.2     1  UNL1        0.0256
     18 C          65.6226   92.1287   15.1068 C.3     1  UNL1        0.1014
     19 N          66.6849   92.5541   14.1369 N.3     1  UNL1       -0.2665
     20 C          68.0047   91.8417   14.1100 C.3     1  UNL1        0.0899
     21 C          66.4273   93.6918   13.1940 C.3     1  UNL1        0.0899
     22 N          63.2547   84.4131   10.4491 N.pl3   1  UNL1       -0.2978
     23 H          64.0811   84.1977    9.9592 H       1  UNL1        0.1536
     24 C          62.3339   85.4794    9.9342 C.ar    1  UNL1        0.0504
     25 C          62.2467   85.7478    8.4609 C.ar    1  UNL1        0.0178
     26 C          61.3259   86.8140    7.9461 C.ar    1  UNL1        0.0391
     27 C          60.4923   87.6120    8.9044 C.ar    1  UNL1        0.1496
     28 C          60.5794   87.3437   10.3776 C.ar    1  UNL1        0.0928
     29 CL         59.7458   88.1416   11.3359 Cl      1  UNL1       -0.0790
     30 C          61.5003   86.2774   10.8925 C.ar    1  UNL1        0.0291
     31 O          59.5714   88.6783    8.3894 O.3     1  UNL1       -0.4681
     32 C          59.0331   88.5936    6.9919 C.3     1  UNL1        0.2508
     33 C          59.0574   89.8025    6.1043 C.ar    1  UNL1        0.1026
     34 C          57.7743   90.4818    5.7269 C.ar    1  UNL1        0.0185
     35 C          57.7986   91.6907    4.8393 C.ar    1  UNL1        0.0029
     36 C          59.1059   92.2204    4.3291 C.ar    1  UNL1        0.0207
     37 C          60.3889   91.5412    4.7064 C.ar    1  UNL1        0.0986
     38 N          60.3647   90.3322    5.5941 N.ar    1  UNL1       -0.2445
     39 O          63.8425   86.2656   17.0425 O.3     1  UNL1       -0.4742
     40 C          62.9085   88.6850   17.1981 C.3     1  UNL1        0.0512
     41 C          62.8393   87.2383   17.5881 C.3     1  UNL1        0.2056
@<TRIPOS>BOND
     1    40    41    1
     2    41    39    1
     3    39     1    1
     4     1     2   ar
     5     2     3   ar
     6     3     4   ar
     7     4     5   ar
     8     5     6   ar
     9     6     7   ar
    10     7    22    1
    11    22    24    1
    12    24    25   ar
    13    25    26   ar
    14    26    27   ar
    15    27    31    1
    16    31    32    1
    17    32    33    1
    18    33    34   ar
    19    34    35   ar
    20    35    36   ar
    21    36    37   ar
    22    37    38   ar
    23    27    28   ar
    24    28    29    1
    25    28    30   ar
    26     7     8   ar
    27     8     9   ar
    28     9    10   ar
    29    10    11    1
    30    11    12   am
    31    12    13    2
    32    12    15    1
    33    15    16    1
    34    15    17    2
    35    17    18    1
    36    18    19    1
    37    19    20    1
    38    19    21    1
    39    10     1   ar
    40     8     3   ar
    41    30    24   ar
    42    38    33   ar
    43    22    23    1
    44    11    14    1
@<TRIPOS>MOLECULE
*****
 41 44 0 0 0
SMALL
GASTEIGER

@<TRIPOS>ATOM
      1 C          60.5876   89.5750   10.0648 C.ar    1  UNL1        0.1534
      2 C          59.8223   88.9357    8.9444 C.ar    1  UNL1        0.0574
      3 C          60.2859   87.6307    8.3682 C.ar    1  UNL1        0.0888
      4 N          59.5206   86.9914    7.2477 N.ar    1  UNL1       -0.2238
      5 C          59.9843   85.6864    6.6716 C.ar    1  UNL1        0.2000
      6 N          61.2133   85.0208    7.2159 N.ar    1  UNL1       -0.2089
      7 C          61.9787   85.6600    8.3364 C.ar    1  UNL1        0.1353
      8 C          61.5150   86.9650    8.9125 C.ar    1  UNL1        0.0508
      9 C          62.2804   87.6044   10.0330 C.ar    1  UNL1        0.0221
     10 C          61.8167   88.9093   10.6092 C.ar    1  UNL1        0.0852
     11 N          62.5820   89.5487   11.7297 N.am    1  UNL1       -0.2762
     12 C          63.3704   90.8004   11.4810 C.2     1  UNL1        0.2769
     13 O          63.3933   91.4127   10.1118 O.2     1  UNL1       -0.2674
     14 H          62.5670   89.1468   12.6283 H       1  UNL1        0.1553
     15 C          64.1357   91.4398   12.6015 C.2     1  UNL1        0.1905
     16 F          63.6978   91.2350   14.0214 F       1  UNL1       -0.1997
     17 C          65.3389   92.2839   12.3020 C.2     1  UNL1        0.0256
     18 C          66.1043   92.9232   13.4224 C.3     1  UNL1        0.1014
     19 N          67.5260   92.5228   13.6838 N.3     1  UNL1       -0.2665
     20 C          68.2856   91.7386   12.6551 C.3     1  UNL1        0.0899
     21 C          68.1881   92.9064   14.9739 C.3     1  UNL1        0.0899
     22 N          63.2077   84.9943    8.8807 N.pl3   1  UNL1       -0.2978
     23 H          63.9977   84.8734    8.3057 H       1  UNL1        0.1536
     24 C          63.2333   84.5129   10.3011 C.ar    1  UNL1        0.0504
     25 C          62.3908   85.1935   11.3389 C.ar    1  UNL1        0.0178
     26 C          62.4163   84.7121   12.7593 C.ar    1  UNL1        0.0391
     27 C          63.2843   83.5501   13.1419 C.ar    1  UNL1        0.1496
     28 C          64.1267   82.8695   12.1041 C.ar    1  UNL1        0.0928
     29 CL         64.9947   81.7075   12.4867 Cl      1  UNL1       -0.0790
     30 C          64.1012   83.3509   10.6837 C.ar    1  UNL1        0.0291
     31 O          63.3098   83.0687   14.5624 O.3     1  UNL1       -0.4681
     32 C          64.1223   83.8017   15.5883 C.3     1  UNL1        0.2508
     33 C          63.8750   85.2598   15.8387 C.ar    1  UNL1        0.1026
     34 C          64.4813   86.2899   14.9322 C.ar    1  UNL1        0.0185
     35 C          64.2341   87.7480   15.1826 C.ar    1  UNL1        0.0029
     36 C          63.3806   88.1761   16.3395 C.ar    1  UNL1        0.0207
     37 C          62.7743   87.1462   17.2459 C.ar    1  UNL1        0.0986
     38 N          63.0215   85.6880   16.9955 N.ar    1  UNL1       -0.2445
     39 O          60.1239   90.8801   10.6410 O.3     1  UNL1       -0.4742
     40 C          58.8327   89.7050   12.5651 C.3     1  UNL1        0.0512
     41 C          59.0440   90.8989   11.6819 C.3     1  UNL1        0.2056
@<TRIPOS>BOND
     1    40    41    1
     2    41    39    1
     3    39     1    1
     4     1     2   ar
     5     2     3   ar
     6     3     4   ar
     7     4     5   ar
     8     5     6   ar
     9     6     7   ar
    10     7    22    1
    11    22    24    1
    12    24    25   ar
    13    25    26   ar
    14    26    27   ar
    15    27    31    1
    16    31    32    1
    17    32    33    1
    18    33    34   ar
    19    34    35   ar
    20    35    36   ar
    21    36    37   ar
    22    37    38   ar
    23    27    28   ar
    24    28    29    1
    25    28    30   ar
    26     7     8   ar
    27     8     9   ar
    28     9    10   ar
    29    10    11    1
    30    11    12   am
    31    12    13    2
    32    12    15    1
    33    15    16    1
    34    15    17    2
    35    17    18    1
    36    18    19    1
    37    19    20    1
    38    19    21    1
    39    10     1   ar
    40     8     3   ar
    41    30    24   ar
    42    38    33   ar
    43    22    23    1
    44    11    14    1
@<TRIPOS>MOLECULE
*****
 41 44 0 0 0
SMALL
GASTEIGER

@<TRIPOS>ATOM
      1 C          63.7266   90.3687   15.8037 C.ar    1  UNL1        0.1534
      2 C          63.0307   89.5609   16.8587 C.ar    1  UNL1        0.0574
      3 C          63.1118   88.0633   16.8319 C.ar    1  UNL1        0.0888
      4 N          62.4159   87.2555   17.8869 N.ar    1  UNL1       -0.2238
      5 C          62.4970   85.7580   17.8600 C.ar    1  UNL1        0.2000
      6 N          63.2740   85.0682   16.7781 N.ar    1  UNL1       -0.2089
      7 C          63.9699   85.8760   15.7231 C.ar    1  UNL1        0.1353
      8 C          63.8888   87.3736   15.7500 C.ar    1  UNL1        0.0508
      9 C          64.5848   88.1814   14.6949 C.ar    1  UNL1        0.0221
     10 C          64.5036   89.6790   14.7218 C.ar    1  UNL1        0.0852
     11 N          65.1996   90.4868   13.6667 N.am    1  UNL1       -0.2762
     12 C          64.4052   91.1298   12.5688 C.2     1  UNL1        0.2769
     13 O          62.9148   90.9649   12.5259 O.2     1  UNL1       -0.2674
     14 H          66.1777   90.5950   13.6949 H       1  UNL1        0.1553
     15 C          65.1010   91.9377   11.5137 C.2     1  UNL1        0.1905
     16 F          64.3581   92.3602   10.2811 F       1  UNL1       -0.1997
     17 C          66.5398   92.3229   11.6914 C.2     1  UNL1        0.0256
     18 C          67.2356   93.1308   10.6363 C.3     1  UNL1        0.1014
     19 N          66.9961   94.6086   10.5436 N.3     1  UNL1       -0.2665
     20 C          67.5531   95.3877    9.3891 C.3     1  UNL1        0.0899
     21 C          66.1996   95.3074   11.6054 C.3     1  UNL1        0.0899
     22 N          64.7470   85.1863   14.6412 N.pl3   1  UNL1       -0.2978
     23 H          65.6727   84.8960   14.8087 H       1  UNL1        0.1536
     24 C          64.1136   84.9388   13.3043 C.ar    1  UNL1        0.0504
     25 C          63.0879   85.8951   12.7717 C.ar    1  UNL1        0.0178
     26 C          62.4545   85.6476   11.4347 C.ar    1  UNL1        0.0391
     27 C          62.8468   84.4439   10.6302 C.ar    1  UNL1        0.1496
     28 C          63.8724   83.4877   11.1627 C.ar    1  UNL1        0.0928
     29 CL         64.2647   82.2840   10.3582 Cl      1  UNL1       -0.0790
     30 C          64.5059   83.7351   12.4998 C.ar    1  UNL1        0.0291
     31 O          62.2133   84.1965    9.2932 O.3     1  UNL1       -0.4681
     32 C          62.2611   85.2565    8.2330 C.3     1  UNL1        0.2508
     33 C          61.2848   86.3948    8.2661 C.ar    1  UNL1        0.1026
     34 C          59.9708   86.2770    7.5523 C.ar    1  UNL1        0.0185
     35 C          58.9946   87.4153    7.5854 C.ar    1  UNL1        0.0029
     36 C          59.3323   88.6715    8.3324 C.ar    1  UNL1        0.0207
     37 C          60.6463   88.7893    9.0462 C.ar    1  UNL1        0.0986
     38 N          61.6226   87.6510    9.0131 N.ar    1  UNL1       -0.2445
     39 O          63.6455   91.8663   15.8305 O.3     1  UNL1       -0.4742
     40 C          66.0872   92.6915   16.1575 C.3     1  UNL1        0.0512
     41 C          64.6562   92.6584   16.6058 C.3     1  UNL1        0.2056
@<TRIPOS>BOND
     1    40    41    1
     2    41    39    1
     3    39     1    1
     4     1     2   ar
     5     2     3   ar
     6     3     4   ar
     7     4     5   ar
     8     5     6   ar
     9     6     7   ar
    10     7    22    1
    11    22    24    1
    12    24    25   ar
    13    25    26   ar
    14    26    27   ar
    15    27    31    1
    16    31    32    1
    17    32    33    1
    18    33    34   ar
    19    34    35   ar
    20    35    36   ar
    21    36    37   ar
    22    37    38   ar
    23    27    28   ar
    24    28    29    1
    25    28    30   ar
    26     7     8   ar
    27     8     9   ar
    28     9    10   ar
    29    10    11    1
    30    11    12   am
    31    12    13    2
    32    12    15    1
    33    15    16    1
    34    15    17    2
    35    17    18    1
    36    18    19    1
    37    19    20    1
    38    19    21    1
    39    10     1   ar
    40     8     3   ar
    41    30    24   ar
    42    38    33   ar
    43    22    23    1
    44    11    14    1
@<TRIPOS>MOLECULE
*****
 41 44 0 0 0
SMALL
GASTEIGER

@<TRIPOS>ATOM
      1 C          62.8735   84.6333   11.0788 C.ar    1  UNL1        0.1534
      2 C          63.5606   84.3677   12.3855 C.ar    1  UNL1        0.0574
      3 C          63.7519   85.4812   13.3722 C.ar    1  UNL1        0.0888
      4 N          64.4390   85.2156   14.6789 N.ar    1  UNL1       -0.2238
      5 C          64.6303   86.3290   15.6655 C.ar    1  UNL1        0.2000
      6 N          64.1346   87.7081   15.3455 N.ar    1  UNL1       -0.2089
      7 C          63.4475   87.9737   14.0389 C.ar    1  UNL1        0.1353
      8 C          63.2562   86.8602   13.0523 C.ar    1  UNL1        0.0508
      9 C          62.5691   87.1258   11.7455 C.ar    1  UNL1        0.0221
     10 C          62.3778   86.0124   10.7589 C.ar    1  UNL1        0.0852
     11 N          61.6907   86.2779    9.4522 N.am    1  UNL1       -0.2762
     12 C          60.4746   87.1551    9.4089 C.2     1  UNL1        0.2769
     13 O          59.9457   87.7666   10.6724 O.2     1  UNL1       -0.2674
     14 H          62.0378   85.8766    8.6229 H       1  UNL1        0.1553
     15 C          59.7875   87.4207    8.1023 C.2     1  UNL1        0.1905
     16 F          59.2376   86.2798    7.2986 F       1  UNL1       -0.1997
     17 C          59.6503   88.8272    7.5993 C.2     1  UNL1        0.0256
     18 C          58.9632   89.0927    6.2927 C.3     1  UNL1        0.1014
     19 N          59.1154   90.4261    5.6227 N.3     1  UNL1       -0.2665
     20 C          57.9001   91.2331    5.2735 C.3     1  UNL1        0.0899
     21 C          60.4828   90.9526    5.3020 C.3     1  UNL1        0.0899
     22 N          62.9517   89.3528   13.7189 N.pl3   1  UNL1       -0.2978
     23 H          61.9846   89.5265   13.6588 H       1  UNL1        0.1536
     24 C          63.9295   90.4671   13.4907 C.ar    1  UNL1        0.0504
     25 C          63.9577   91.1819   12.1721 C.ar    1  UNL1        0.0178
     26 C          64.9355   92.2962   11.9439 C.ar    1  UNL1        0.0391
     27 C          65.8852   92.6958   13.0340 C.ar    1  UNL1        0.1496
     28 C          65.8571   91.9811   14.3525 C.ar    1  UNL1        0.0928
     29 CL         66.8067   92.3807   15.4426 Cl      1  UNL1       -0.0790
     30 C          64.8792   90.8667   14.5808 C.ar    1  UNL1        0.0291
     31 O          66.8630   93.8102   12.8057 O.3     1  UNL1       -0.4681
     32 C          66.3923   95.1166   12.2387 C.3     1  UNL1        0.2508
     33 C          66.5298   95.3899   10.7702 C.ar    1  UNL1        0.1026
     34 C          65.7447   96.5004   10.1373 C.ar    1  UNL1        0.0185
     35 C          65.8822   96.7737    8.6688 C.ar    1  UNL1        0.0029
     36 C          66.8048   95.9366    7.8333 C.ar    1  UNL1        0.0207
     37 C          67.5898   94.8261    8.4662 C.ar    1  UNL1        0.0986
     38 N          67.4523   94.5528    9.9347 N.ar    1  UNL1       -0.2445
     39 O          62.6822   83.5198   10.0921 O.3     1  UNL1       -0.4742
     40 C          63.1738   81.0002   10.4917 C.3     1  UNL1        0.0512
     41 C          63.6374   82.3634   10.0716 C.3     1  UNL1        0.2056
@<TRIPOS>BOND
     1    40    41    1
     2    41    39    1
     3    39     1    1
     4     1     2   ar
     5     2     3   ar
     6     3     4   ar
     7     4     5   ar
     8     5     6   ar
     9     6     7   ar
    10     7    22    1
    11    22    24    1
    12    24    25   ar
    13    25    26   ar
    14    26    27   ar
    15    27    31    1
    16    31    32    1
    17    32    33    1
    18    33    34   ar
    19    34    35   ar
    20    35    36   ar
    21    36    37   ar
    22    37    38   ar
    23    27    28   ar
    24    28    29    1
    25    28    30   ar
    26     7     8   ar
    27     8     9   ar
    28     9    10   ar
    29    10    11    1
    30    11    12   am
    31    12    13    2
    32    12    15    1
    33    15    16    1
    34    15    17    2
    35    17    18    1
    36    18    19    1
    37    19    20    1
    38    19    21    1
    39    10     1   ar
    40     8     3   ar
    41    30    24   ar
    42    38    33   ar
    43    22    23    1
    44    11    14    1
@<TRIPOS>MOLECULE
*****
 41 44 0 0 0
SMALL
GASTEIGER

@<TRIPOS>ATOM
      1 C          63.7811   86.1646   15.8253 C.ar    1  UNL1        0.1534
      2 C          63.5601   87.3201   16.7558 C.ar    1  UNL1        0.0574
      3 C          63.5763   88.7234   16.2261 C.ar    1  UNL1        0.0888
      4 N          63.3552   89.8789   17.1567 N.ar    1  UNL1       -0.2238
      5 C          63.3714   91.2821   16.6270 C.ar    1  UNL1        0.2000
      6 N          63.6087   91.5299   15.1668 N.ar    1  UNL1       -0.2089
      7 C          63.8297   90.3744   14.2362 C.ar    1  UNL1        0.1353
      8 C          63.8135   88.9712   14.7659 C.ar    1  UNL1        0.0508
      9 C          64.0346   87.8156   13.8353 C.ar    1  UNL1        0.0221
     10 C          64.0184   86.4124   14.3650 C.ar    1  UNL1        0.0852
     11 N          64.2395   85.2569   13.4344 N.am    1  UNL1       -0.2762
     12 C          63.2147   84.9289   12.3893 C.2     1  UNL1        0.2769
     13 O          61.9689   85.7565   12.2747 O.2     1  UNL1       -0.2674
     14 H          65.0571   84.7137   13.5097 H       1  UNL1        0.1553
     15 C          63.4357   83.7734   11.4587 C.2     1  UNL1        0.1905
     16 F          64.3248   83.9342   10.2614 F       1  UNL1       -0.1997
     17 C          62.7676   82.4572   11.7255 C.2     1  UNL1        0.0256
     18 C          62.9886   81.3017   10.7950 C.3     1  UNL1        0.1014
     19 N          62.7880   79.8973   11.2822 N.3     1  UNL1       -0.2665
     20 C          62.5543   79.6356   12.7407 C.3     1  UNL1        0.0899
     21 C          62.8210   78.7546   10.3111 C.3     1  UNL1        0.0899
     22 N          64.0670   90.6222   12.7760 N.pl3   1  UNL1       -0.2978
     23 H          64.9119   91.0294   12.4767 H       1  UNL1        0.1536
     24 C          63.0170   90.2496   11.7717 C.ar    1  UNL1        0.0504
     25 C          63.2661   90.4703   10.3090 C.ar    1  UNL1        0.0178
     26 C          62.2161   90.0977    9.3048 C.ar    1  UNL1        0.0391
     27 C          60.9169   89.5044    9.7631 C.ar    1  UNL1        0.1496
     28 C          60.6677   89.2837   11.2257 C.ar    1  UNL1        0.0928
     29 CL         59.3685   88.6903   11.6840 Cl      1  UNL1       -0.0790
     30 C          61.7178   89.6563   12.2300 C.ar    1  UNL1        0.0291
     31 O          59.8669   89.1317    8.7588 O.3     1  UNL1       -0.4681
     32 C          59.4862   87.6932    8.5703 C.3     1  UNL1        0.2508
     33 C          60.5214   86.6924    8.1497 C.ar    1  UNL1        0.1026
     34 C          61.8441   86.6399    8.8553 C.ar    1  UNL1        0.0185
     35 C          62.8793   85.6392    8.4348 C.ar    1  UNL1        0.0029
     36 C          62.5918   84.6909    7.3086 C.ar    1  UNL1        0.0207
     37 C          61.2692   84.7434    6.6030 C.ar    1  UNL1        0.0986
     38 N          60.2340   85.7442    7.0235 N.ar    1  UNL1       -0.2445
     39 O          63.7649   84.7613   16.3549 O.3     1  UNL1       -0.4742
     40 C          62.6733   82.7365   15.1473 C.3     1  UNL1        0.0512
     41 C          62.5748   83.8814   16.1113 C.3     1  UNL1        0.2056
@<TRIPOS>BOND
     1    40    41    1
     2    41    39    1
     3    39     1    1
     4     1     2   ar
     5     2     3   ar
     6     3     4   ar
     7     4     5   ar
     8     5     6   ar
     9     6     7   ar
    10     7    22    1
    11    22    24    1
    12    24    25   ar
    13    25    26   ar
    14    26    27   ar
    15    27    31    1
    16    31    32    1
    17    32    33    1
    18    33    34   ar
    19    34    35   ar
    20    35    36   ar
    21    36    37   ar
    22    37    38   ar
    23    27    28   ar
    24    28    29    1
    25    28    30   ar
    26     7     8   ar
    27     8     9   ar
    28     9    10   ar
    29    10    11    1
    30    11    12   am
    31    12    13    2
    32    12    15    1
    33    15    16    1
    34    15    17    2
    35    17    18    1
    36    18    19    1
    37    19    20    1
    38    19    21    1
    39    10     1   ar
    40     8     3   ar
    41    30    24   ar
    42    38    33   ar
    43    22    23    1
    44    11    14    1
@<TRIPOS>MOLECULE
*****
 41 44 0 0 0
SMALL
GASTEIGER

@<TRIPOS>ATOM
      1 C          63.7813   86.0988   15.4708 C.ar    1  UNL1        0.1534
      2 C          63.6412   87.2764   16.3893 C.ar    1  UNL1        0.0574
      3 C          63.6147   88.6669   15.8273 C.ar    1  UNL1        0.0888
      4 N          63.4746   89.8445   16.7458 N.ar    1  UNL1       -0.2238
      5 C          63.4481   91.2350   16.1838 C.ar    1  UNL1        0.2000
      6 N          63.5619   91.4479   14.7033 N.ar    1  UNL1       -0.2089
      7 C          63.7020   90.2703   13.7848 C.ar    1  UNL1        0.1353
      8 C          63.7285   88.8798   14.3468 C.ar    1  UNL1        0.0508
      9 C          63.8686   87.7022   13.4284 C.ar    1  UNL1        0.0221
     10 C          63.8951   86.3117   13.9903 C.ar    1  UNL1        0.0852
     11 N          64.0352   85.1340   13.0719 N.am    1  UNL1       -0.2762
     12 C          62.9580   84.8291   12.0736 C.2     1  UNL1        0.2769
     13 O          61.7406   85.7018   11.9938 O.2     1  UNL1       -0.2674
     14 H          64.8343   84.5613   13.1243 H       1  UNL1        0.1553
     15 C          63.0981   83.6515   11.1551 C.2     1  UNL1        0.1905
     16 F          63.3951   83.8660    9.7006 F       1  UNL1       -0.1997
     17 C          62.9412   82.2594   11.6912 C.2     1  UNL1        0.0256
     18 C          63.0813   81.0818   10.7728 C.3     1  UNL1        0.1014
     19 N          62.7788   79.7004   11.2729 N.3     1  UNL1       -0.2665
     20 C          62.7536   78.5452   10.3163 C.3     1  UNL1        0.0899
     21 C          62.5016   79.4741   12.7296 C.3     1  UNL1        0.0899
     22 N          63.8158   90.4832   12.3044 N.pl3   1  UNL1       -0.2978
     23 H          64.6221   90.9046   11.9282 H       1  UNL1        0.1536
     24 C          62.7011   90.0540   11.3971 C.ar    1  UNL1        0.0504
     25 C          61.4716   90.9034   11.2660 C.ar    1  UNL1        0.0178
     26 C          60.3569   90.4742   10.3587 C.ar    1  UNL1        0.0391
     27 C          60.4715   89.1957    9.5826 C.ar    1  UNL1        0.1496
     28 C          61.7009   88.3464    9.7137 C.ar    1  UNL1        0.0928
     29 CL         61.8155   87.0679    8.9376 Cl      1  UNL1       -0.0790
     30 C          62.8157   88.7755   10.6210 C.ar    1  UNL1        0.0291
     31 O          59.3567   88.7666    8.6753 O.3     1  UNL1       -0.4681
     32 C          59.5939   88.6506    7.1988 C.3     1  UNL1        0.2508
     33 C          59.2202   89.7823    6.2880 C.ar    1  UNL1        0.1026
     34 C          60.2884   90.5426    5.5593 C.ar    1  UNL1        0.0185
     35 C          59.9148   91.6743    4.6485 C.ar    1  UNL1        0.0029
     36 C          58.4730   92.0458    4.4664 C.ar    1  UNL1        0.0207
     37 C          57.4048   91.2855    5.1950 C.ar    1  UNL1        0.0986
     38 N          57.7784   90.1537    6.1058 N.ar    1  UNL1       -0.2445
     39 O          63.8078   84.7083   16.0328 O.3     1  UNL1       -0.4742
     40 C          62.6883   82.6138   14.9792 C.3     1  UNL1        0.0512
     41 C          62.6141   83.8134   15.8766 C.3     1  UNL1        0.2056
@<TRIPOS>BOND
     1    40    41    1
     2    41    39    1
     3    39     1    1
     4     1     2   ar
     5     2     3   ar
     6     3     4   ar
     7     4     5   ar
     8     5     6   ar
     9     6     7   ar
    10     7    22    1
    11    22    24    1
    12    24    25   ar
    13    25    26   ar
    14    26    27   ar
    15    27    31    1
    16    31    32    1
    17    32    33    1
    18    33    34   ar
    19    34    35   ar
    20    35    36   ar
    21    36    37   ar
    22    37    38   ar
    23    27    28   ar
    24    28    29    1
    25    28    30   ar
    26     7     8   ar
    27     8     9   ar
    28     9    10   ar
    29    10    11    1
    30    11    12   am
    31    12    13    2
    32    12    15    1
    33    15    16    1
    34    15    17    2
    35    17    18    1
    36    18    19    1
    37    19    20    1
    38    19    21    1
    39    10     1   ar
    40     8     3   ar
    41    30    24   ar
    42    38    33   ar
    43    22    23    1
    44    11    14    1
