@<TRIPOS>MOLECULE
*****
 29 31 0 0 0
SMALL
GASTEIGER

@<TRIPOS>ATOM
      1 C          62.5986   86.3819   10.9269 C.3     1  UNL1        0.0564
      2 C          64.2742   89.9854   14.2746 C.3     1  UNL1        0.0310
      3 C          63.9875   88.5500   13.9469 C.ar    1  UNL1       -0.0221
      4 C          64.2518   87.4809   14.9653 C.ar    1  UNL1       -0.0043
      5 C          63.9651   86.0455   14.6376 C.ar    1  UNL1       -0.0006
      6 C          63.4140   85.6792   13.2915 C.ar    1  UNL1       -0.0037
      7 C          63.1497   86.7482   12.2731 C.ar    1  UNL1       -0.0155
      8 C          63.4364   88.1836   12.6008 C.ar    1  UNL1       -0.0079
      9 C          61.8740   87.6939   10.8665 C.ar    1  UNL1       -0.0152
     10 C          62.4304   88.8210   10.0478 C.ar    1  UNL1       -0.0037
     11 C          61.7058   90.1330    9.9875 C.ar    1  UNL1       -0.0003
     12 C          60.4249   90.3180   10.7458 C.ar    1  UNL1       -0.0000
     13 C          59.8686   89.1910   11.5645 C.ar    1  UNL1       -0.0003
     14 C          60.5932   87.8789   11.6249 C.ar    1  UNL1       -0.0037
     15 C          62.0475   86.0157    9.5807 C.ar    1  UNL1       -0.0152
     16 C          62.9324   85.3633    8.5602 C.ar    1  UNL1       -0.0037
     17 C          62.3813   84.9971    7.2141 C.ar    1  UNL1       -0.0003
     18 C          60.9453   85.2832    6.8884 C.ar    1  UNL1       -0.0000
     19 C          60.0604   85.9355    7.9088 C.ar    1  UNL1       -0.0003
     20 C          60.6115   86.3018    9.2550 C.ar    1  UNL1       -0.0037
     21 C          63.3232   85.0700   10.9872 C.3     1  UNL1        0.0140
     22 C          62.5854   83.8229   11.3754 C.3     1  UNL1        0.0222
     23 CA         63.3442   82.6217   11.8564 C.3     1  UNL1        0.0879
     24 N          64.7979   82.4686   11.5199 N.3     1  UNL1       -0.3179
     25 H1         65.1038   83.2664   10.9629 H       1  UNL1        0.1191
     26 H2         64.9349   81.6095   10.9872 H       1  UNL1        0.1191
     27 C          62.6492   81.5736   12.6740 C.2     1  UNL1        0.0644
     28 O          61.9327   81.9585   13.9344 O.co2   1  UNL1       -0.5478
     29 OXT        62.6707   80.1406   12.2313 O.co2   1  UNL1       -0.5478
@<TRIPOS>UNITY_ATOM_ATTR
28 1
charge -1
@<TRIPOS>BOND
     1     2     3    1
     2     3     4   ar
     3     4     5   ar
     4     5     6   ar
     5     6     7   ar
     6     7     1    1
     7     1    21    1
     8    21    22    1
     9    22    23    1
    10    23    24    1
    11    23    27    1
    12    27    28   ar
    13    27    29   ar
    14     1     9    1
    15     9    10   ar
    16    10    11   ar
    17    11    12   ar
    18    12    13   ar
    19    13    14   ar
    20     1    15    1
    21    15    16   ar
    22    16    17   ar
    23    17    18   ar
    24    18    19   ar
    25    19    20   ar
    26     7     8   ar
    27     8     3   ar
    28    14     9   ar
    29    20    15   ar
    30    24    25    1
    31    24    26    1
@<TRIPOS>MOLECULE
*****
 29 31 0 0 0
SMALL
GASTEIGER

@<TRIPOS>ATOM
      1 C          62.5924   86.3898   10.9232 C.3     1  UNL1        0.0564
      2 C          64.2736   89.9944   14.2670 C.3     1  UNL1        0.0310
      3 C          63.9851   88.5590   13.9407 C.ar    1  UNL1       -0.0221
      4 C          64.2488   87.4905   14.9599 C.ar    1  UNL1       -0.0043
      5 C          63.9604   86.0552   14.6336 C.ar    1  UNL1       -0.0006
      6 C          63.4083   85.6882   13.2880 C.ar    1  UNL1       -0.0037
      7 C          63.1446   86.7567   12.2688 C.ar    1  UNL1       -0.0155
      8 C          63.4330   88.1921   12.5952 C.ar    1  UNL1       -0.0079
      9 C          61.8675   87.7016   10.8631 C.ar    1  UNL1       -0.0152
     10 C          62.4254   88.8301   10.0474 C.ar    1  UNL1       -0.0037
     11 C          61.7005   90.1419    9.9873 C.ar    1  UNL1       -0.0003
     12 C          60.4177   90.3253   10.7427 C.ar    1  UNL1       -0.0000
     13 C          59.8598   89.1968   11.5584 C.ar    1  UNL1       -0.0003
     14 C          60.5847   87.8850   11.6186 C.ar    1  UNL1       -0.0037
     15 C          62.0402   86.0230    9.5777 C.ar    1  UNL1       -0.0152
     16 C          60.6028   86.3049    9.2546 C.ar    1  UNL1       -0.0037
     17 C          60.0506   85.9381    7.9091 C.ar    1  UNL1       -0.0003
     18 C          60.9358   85.2893    6.8866 C.ar    1  UNL1       -0.0000
     19 C          62.3732   85.0075    7.2096 C.ar    1  UNL1       -0.0003
     20 C          62.9255   85.3743    8.5552 C.ar    1  UNL1       -0.0037
     21 C          63.3173   85.0780   10.9834 C.3     1  UNL1        0.0140
     22 C          62.5817   83.8321   11.3789 C.3     1  UNL1        0.0222
     23 CA         63.3425   82.6345   11.8659 C.3     1  UNL1        0.0879
     24 N          64.7980   82.4854   11.5354 N.3     1  UNL1       -0.3179
     25 H1         65.1035   83.2829   10.9776 H       1  UNL1        0.1191
     26 H2         64.9400   81.6255   11.0054 H       1  UNL1        0.1191
     27 C          62.6478   81.5862   12.6834 C.2     1  UNL1        0.0644
     28 O          62.6681   80.1535   12.2395 O.co2   1  UNL1       -0.5478
     29 OXT        61.9329   81.9705   13.9448 O.co2   1  UNL1       -0.5478
@<TRIPOS>UNITY_ATOM_ATTR
28 1
charge -1
@<TRIPOS>BOND
     1     2     3    1
     2     3     4   ar
     3     4     5   ar
     4     5     6   ar
     5     6     7   ar
     6     7     1    1
     7     1    21    1
     8    21    22    1
     9    22    23    1
    10    23    24    1
    11    23    27    1
    12    27    28   ar
    13    27    29   ar
    14     1     9    1
    15     9    10   ar
    16    10    11   ar
    17    11    12   ar
    18    12    13   ar
    19    13    14   ar
    20     1    15    1
    21    15    16   ar
    22    16    17   ar
    23    17    18   ar
    24    18    19   ar
    25    19    20   ar
    26     7     8   ar
    27     8     3   ar
    28    14     9   ar
    29    20    15   ar
    30    24    25    1
    31    24    26    1
@<TRIPOS>MOLECULE
*****
 29 31 0 0 0
SMALL
GASTEIGER

@<TRIPOS>ATOM
      1 C          65.1150   91.8131   13.2513 C.3     1  UNL1        0.0564
      2 C          64.4466   86.9073   14.8281 C.3     1  UNL1        0.0310
      3 C          64.2379   88.3782   15.0352 C.ar    1  UNL1       -0.0221
      4 C          63.4864   88.8672   16.2378 C.ar    1  UNL1       -0.0043
      5 C          63.2778   90.3381   16.4448 C.ar    1  UNL1       -0.0006
      6 C          63.8206   91.3201   15.4494 C.ar    1  UNL1       -0.0037
      7 C          64.5721   90.8311   14.2468 C.ar    1  UNL1       -0.0155
      8 C          64.7807   89.3602   14.0397 C.ar    1  UNL1       -0.0079
      9 C          66.3246   92.0190   14.1140 C.ar    1  UNL1       -0.0152
     10 C          66.1714   92.5657   15.5024 C.ar    1  UNL1       -0.0037
     11 C          67.3810   92.7715   16.3652 C.ar    1  UNL1       -0.0003
     12 C          68.7439   92.4306   15.8395 C.ar    1  UNL1       -0.0000
     13 C          68.8972   91.8839   14.4512 C.ar    1  UNL1       -0.0003
     14 C          67.6875   91.6780   13.5884 C.ar    1  UNL1       -0.0037
     15 C          65.6578   92.7951   12.2558 C.ar    1  UNL1       -0.0152
     16 C          65.9406   94.2078   12.6734 C.ar    1  UNL1       -0.0037
     17 C          66.4835   95.1898   11.6780 C.ar    1  UNL1       -0.0003
     18 C          66.7436   94.7591   10.2649 C.ar    1  UNL1       -0.0000
     19 C          66.4609   93.3465    9.8472 C.ar    1  UNL1       -0.0003
     20 C          65.9180   92.3644   10.8427 C.ar    1  UNL1       -0.0037
     21 C          63.9053   91.6073   12.3886 C.3     1  UNL1        0.0140
     22 C          63.4621   90.2180   12.0374 C.3     1  UNL1        0.0222
     23 CA         62.6804   89.9753   10.7804 C.3     1  UNL1        0.0879
     24 N          62.5579   91.0605    9.7521 N.3     1  UNL1       -0.3179
     25 H1         63.0636   91.8877   10.0689 H       1  UNL1        0.1191
     26 H2         61.5738   91.2936    9.6193 H       1  UNL1        0.1191
     27 C          62.0210   88.6475   10.5517 C.2     1  UNL1        0.0644
     28 O          62.1679   87.5526   11.5665 O.co2   1  UNL1       -0.5478
     29 OXT        61.2149   88.4146    9.3085 O.co2   1  UNL1       -0.5478
@<TRIPOS>UNITY_ATOM_ATTR
28 1
charge -1
@<TRIPOS>BOND
     1     2     3    1
     2     3     4   ar
     3     4     5   ar
     4     5     6   ar
     5     6     7   ar
     6     7     1    1
     7     1    21    1
     8    21    22    1
     9    22    23    1
    10    23    24    1
    11    23    27    1
    12    27    28   ar
    13    27    29   ar
    14     1     9    1
    15     9    10   ar
    16    10    11   ar
    17    11    12   ar
    18    12    13   ar
    19    13    14   ar
    20     1    15    1
    21    15    16   ar
    22    16    17   ar
    23    17    18   ar
    24    18    19   ar
    25    19    20   ar
    26     7     8   ar
    27     8     3   ar
    28    14     9   ar
    29    20    15   ar
    30    24    25    1
    31    24    26    1
@<TRIPOS>MOLECULE
*****
 29 31 0 0 0
SMALL
GASTEIGER

@<TRIPOS>ATOM
      1 C          65.0437   91.5123   13.1795 C.3     1  UNL1        0.0564
      2 C          60.2757   89.5845   12.4382 C.3     1  UNL1        0.0310
      3 C          61.5302   90.1948   11.8873 C.ar    1  UNL1       -0.0221
      4 C          61.6554   90.4515   10.4147 C.ar    1  UNL1       -0.0043
      5 C          62.9100   91.0618    9.8638 C.ar    1  UNL1       -0.0006
      6 C          64.0394   91.4154   10.7853 C.ar    1  UNL1       -0.0037
      7 C          63.9142   91.1587   12.2579 C.ar    1  UNL1       -0.0155
      8 C          62.6597   90.5484   12.8088 C.ar    1  UNL1       -0.0079
      9 C          64.5102   90.5526   14.2014 C.ar    1  UNL1       -0.0152
     10 C          64.6930   89.0759   14.0109 C.ar    1  UNL1       -0.0037
     11 C          64.1595   88.1162   15.0328 C.ar    1  UNL1       -0.0003
     12 C          63.4433   88.6330   16.2452 C.ar    1  UNL1       -0.0000
     13 C          63.2605   90.1096   16.4357 C.ar    1  UNL1       -0.0003
     14 C          63.7940   91.0694   15.4138 C.ar    1  UNL1       -0.0037
     15 C          66.1731   91.8659   14.1012 C.ar    1  UNL1       -0.0152
     16 C          67.5903   91.6031   13.6859 C.ar    1  UNL1       -0.0037
     17 C          68.7197   91.9567   14.6076 C.ar    1  UNL1       -0.0003
     18 C          68.4319   92.5730   15.9445 C.ar    1  UNL1       -0.0000
     19 C          67.0147   92.8358   16.3597 C.ar    1  UNL1       -0.0003
     20 C          65.8852   92.4822   15.4381 C.ar    1  UNL1       -0.0037
     21 C          65.5772   92.4721   12.1577 C.3     1  UNL1        0.0140
     22 C          66.0207   93.8427   12.5756 C.3     1  UNL1        0.0222
     23 CA         66.2500   94.9047   11.5413 C.3     1  UNL1        0.0879
     24 N          65.7991   96.3119   11.7986 N.3     1  UNL1       -0.3179
     25 H1         65.3603   96.3657   12.7178 H       1  UNL1        0.1191
     26 H2         65.1263   96.5894   11.0839 H       1  UNL1        0.1191
     27 C          66.9301   94.5593   10.2497 C.2     1  UNL1        0.0644
     28 O          66.4627   95.1800    8.9666 O.co2   1  UNL1       -0.5478
     29 OXT        68.0775   93.5932   10.2412 O.co2   1  UNL1       -0.5478
@<TRIPOS>UNITY_ATOM_ATTR
28 1
charge -1
@<TRIPOS>BOND
     1     2     3    1
     2     3     4   ar
     3     4     5   ar
     4     5     6   ar
     5     6     7   ar
     6     7     1    1
     7     1    21    1
     8    21    22    1
     9    22    23    1
    10    23    24    1
    11    23    27    1
    12    27    28   ar
    13    27    29   ar
    14     1     9    1
    15     9    10   ar
    16    10    11   ar
    17    11    12   ar
    18    12    13   ar
    19    13    14   ar
    20     1    15    1
    21    15    16   ar
    22    16    17   ar
    23    17    18   ar
    24    18    19   ar
    25    19    20   ar
    26     7     8   ar
    27     8     3   ar
    28    14     9   ar
    29    20    15   ar
    30    24    25    1
    31    24    26    1
@<TRIPOS>MOLECULE
*****
 29 31 0 0 0
SMALL
GASTEIGER

@<TRIPOS>ATOM
      1 C          65.0464   91.7445   13.2556 C.3     1  UNL1        0.0564
      2 C          64.4919   86.8277   14.8424 C.3     1  UNL1        0.0310
      3 C          64.2416   88.2932   15.0419 C.ar    1  UNL1       -0.0221
      4 C          63.4638   88.7657   16.2342 C.ar    1  UNL1       -0.0043
      5 C          63.2135   90.2312   16.4337 C.ar    1  UNL1       -0.0006
      6 C          63.7410   91.2241   15.4409 C.ar    1  UNL1       -0.0037
      7 C          64.5189   90.7516   14.2486 C.ar    1  UNL1       -0.0155
      8 C          64.7692   89.2861   14.0491 C.ar    1  UNL1       -0.0079
      9 C          66.2555   91.9626   14.1162 C.ar    1  UNL1       -0.0152
     10 C          67.6222   91.6501   13.5827 C.ar    1  UNL1       -0.0037
     11 C          68.8312   91.8682   14.4433 C.ar    1  UNL1       -0.0003
     12 C          68.6736   92.3988   15.8374 C.ar    1  UNL1       -0.0000
     13 C          67.3070   92.7112   16.3710 C.ar    1  UNL1       -0.0003
     14 C          66.0979   92.4932   15.5104 C.ar    1  UNL1       -0.0037
     15 C          65.5740   92.7374   12.2628 C.ar    1  UNL1       -0.0152
     16 C          65.7657   92.3361   10.8302 C.ar    1  UNL1       -0.0037
     17 C          66.2933   93.3290    9.8374 C.ar    1  UNL1       -0.0003
     18 C          66.6292   94.7232   10.2771 C.ar    1  UNL1       -0.0000
     19 C          66.4376   95.1245   11.7096 C.ar    1  UNL1       -0.0003
     20 C          65.9100   94.1316   12.7025 C.ar    1  UNL1       -0.0037
     21 C          63.8374   91.5264   12.3951 C.3     1  UNL1        0.0140
     22 C          63.4755   90.1413   11.9473 C.3     1  UNL1        0.0222
     23 CA         62.0341   89.7551   11.7944 C.3     1  UNL1        0.0879
     24 N          61.1157   89.8009   12.9795 N.3     1  UNL1       -0.3179
     25 H1         61.6346   90.1140   13.7999 H       1  UNL1        0.1191
     26 H2         60.7366   88.8698   13.1520 H       1  UNL1        0.1191
     27 C          61.5112   89.3233   10.4565 C.2     1  UNL1        0.0644
     28 O          62.2045   88.2310    9.6973 O.co2   1  UNL1       -0.5478
     29 OXT        60.2951   89.9836    9.8778 O.co2   1  UNL1       -0.5478
@<TRIPOS>UNITY_ATOM_ATTR
28 1
charge -1
@<TRIPOS>BOND
     1     2     3    1
     2     3     4   ar
     3     4     5   ar
     4     5     6   ar
     5     6     7   ar
     6     7     1    1
     7     1    21    1
     8    21    22    1
     9    22    23    1
    10    23    24    1
    11    23    27    1
    12    27    28   ar
    13    27    29   ar
    14     1     9    1
    15     9    10   ar
    16    10    11   ar
    17    11    12   ar
    18    12    13   ar
    19    13    14   ar
    20     1    15    1
    21    15    16   ar
    22    16    17   ar
    23    17    18   ar
    24    18    19   ar
    25    19    20   ar
    26     7     8   ar
    27     8     3   ar
    28    14     9   ar
    29    20    15   ar
    30    24    25    1
    31    24    26    1
@<TRIPOS>MOLECULE
*****
 29 31 0 0 0
SMALL
GASTEIGER

@<TRIPOS>ATOM
      1 C          62.2445   85.8994   11.0730 C.3     1  UNL1        0.0564
      2 C          61.8182   81.2168   13.2847 C.3     1  UNL1        0.0310
      3 C          62.4917   82.1365   12.3097 C.ar    1  UNL1       -0.0221
      4 C          63.6255   81.6346   11.4655 C.ar    1  UNL1       -0.0043
      5 C          64.2990   82.5543   10.4905 C.ar    1  UNL1       -0.0006
      6 C          63.8387   83.9759   10.3597 C.ar    1  UNL1       -0.0037
      7 C          62.7049   84.4778   11.2038 C.ar    1  UNL1       -0.0155
      8 C          62.0314   83.5581   12.1788 C.ar    1  UNL1       -0.0079
      9 C          61.9774   85.6786    9.6136 C.ar    1  UNL1       -0.0152
     10 C          60.6115   85.9427    9.0527 C.ar    1  UNL1       -0.0037
     11 C          60.3444   85.7219    7.5933 C.ar    1  UNL1       -0.0003
     12 C          61.4431   85.2369    6.6947 C.ar    1  UNL1       -0.0000
     13 C          62.8090   84.9727    7.2555 C.ar    1  UNL1       -0.0003
     14 C          63.0762   85.1936    8.7150 C.ar    1  UNL1       -0.0037
     15 C          61.7842   87.3210   10.9421 C.ar    1  UNL1       -0.0152
     16 C          60.4309   87.7210   11.4509 C.ar    1  UNL1       -0.0037
     17 C          59.9706   89.1426   11.3200 C.ar    1  UNL1       -0.0003
     18 C          60.8634   90.1642   10.6803 C.ar    1  UNL1       -0.0000
     19 C          62.2166   89.7643   10.1715 C.ar    1  UNL1       -0.0003
     20 C          62.6770   88.3426   10.3024 C.ar    1  UNL1       -0.0037
     21 C          62.5116   86.1203   12.5323 C.3     1  UNL1        0.0140
     22 C          63.9208   86.1136   13.0463 C.3     1  UNL1        0.0222
     23 CA         64.2751   85.2961   14.2530 C.3     1  UNL1        0.0879
     24 N          65.5714   84.5425   14.2942 N.3     1  UNL1       -0.3179
     25 H1         66.0828   84.6980   13.4254 H       1  UNL1        0.1191
     26 H2         65.3822   83.5462   14.4037 H       1  UNL1        0.1191
     27 C          63.3331   85.2321   15.4186 C.2     1  UNL1        0.0644
     28 O          62.5537   83.9784   15.6851 O.co2   1  UNL1       -0.5478
     29 OXT        63.1704   86.4217   16.3176 O.co2   1  UNL1       -0.5478
@<TRIPOS>UNITY_ATOM_ATTR
28 1
charge -1
@<TRIPOS>BOND
     1     2     3    1
     2     3     4   ar
     3     4     5   ar
     4     5     6   ar
     5     6     7   ar
     6     7     1    1
     7     1    21    1
     8    21    22    1
     9    22    23    1
    10    23    24    1
    11    23    27    1
    12    27    28   ar
    13    27    29   ar
    14     1     9    1
    15     9    10   ar
    16    10    11   ar
    17    11    12   ar
    18    12    13   ar
    19    13    14   ar
    20     1    15    1
    21    15    16   ar
    22    16    17   ar
    23    17    18   ar
    24    18    19   ar
    25    19    20   ar
    26     7     8   ar
    27     8     3   ar
    28    14     9   ar
    29    20    15   ar
    30    24    25    1
    31    24    26    1
@<TRIPOS>MOLECULE
*****
 29 31 0 0 0
SMALL
GASTEIGER

@<TRIPOS>ATOM
      1 C          65.3739   91.6834   12.8594 C.3     1  UNL1        0.0564
      2 C          69.0251   92.3394    9.2210 C.3     1  UNL1        0.0310
      3 C          67.8238   92.8469    9.9622 C.ar    1  UNL1       -0.0221
      4 C          67.2469   94.1899    9.6253 C.ar    1  UNL1       -0.0043
      5 C          66.0456   94.6974   10.3665 C.ar    1  UNL1       -0.0006
      6 C          65.4213   93.8619   11.4445 C.ar    1  UNL1       -0.0037
      7 C          65.9982   92.5189   11.7814 C.ar    1  UNL1       -0.0155
      8 C          67.1995   92.0114   11.0402 C.ar    1  UNL1       -0.0079
      9 C          66.3755   92.2073   13.8454 C.ar    1  UNL1       -0.0152
     10 C          66.4921   93.6837   14.0835 C.ar    1  UNL1       -0.0037
     11 C          67.4937   94.2076   15.0695 C.ar    1  UNL1       -0.0003
     12 C          68.3787   93.2551   15.8175 C.ar    1  UNL1       -0.0000
     13 C          68.2621   91.7787   15.5795 C.ar    1  UNL1       -0.0003
     14 C          67.2605   91.2548   14.5935 C.ar    1  UNL1       -0.0037
     15 C          64.7496   90.8479   13.9375 C.ar    1  UNL1       -0.0152
     16 C          64.6121   89.3657   13.7527 C.ar    1  UNL1       -0.0037
     17 C          63.9878   88.5302   14.8307 C.ar    1  UNL1       -0.0003
     18 C          63.5010   89.1769   16.0936 C.ar    1  UNL1       -0.0000
     19 C          63.6384   90.6591   16.2784 C.ar    1  UNL1       -0.0003
     20 C          64.2627   91.4946   15.2003 C.ar    1  UNL1       -0.0037
     21 C          64.3723   91.1595   11.8734 C.3     1  UNL1        0.0140
     22 C          62.9055   91.2510   12.1738 C.3     1  UNL1        0.0222
     23 CA         61.9016   90.8025   11.1534 C.3     1  UNL1        0.0879
     24 N          62.2633   90.7962    9.6977 N.3     1  UNL1       -0.3179
     25 H1         63.2224   91.1244    9.5843 H       1  UNL1        0.1191
     26 H2         61.6305   91.4123    9.1875 H       1  UNL1        0.1191
     27 C          60.5359   90.3604   11.5888 C.2     1  UNL1        0.0644
     28 O          59.3197   90.8652   10.8704 O.co2   1  UNL1       -0.5478
     29 OXT        60.3865   89.4136   12.7425 O.co2   1  UNL1       -0.5478
@<TRIPOS>UNITY_ATOM_ATTR
28 1
charge -1
@<TRIPOS>BOND
     1     2     3    1
     2     3     4   ar
     3     4     5   ar
     4     5     6   ar
     5     6     7   ar
     6     7     1    1
     7     1    21    1
     8    21    22    1
     9    22    23    1
    10    23    24    1
    11    23    27    1
    12    27    28   ar
    13    27    29   ar
    14     1     9    1
    15     9    10   ar
    16    10    11   ar
    17    11    12   ar
    18    12    13   ar
    19    13    14   ar
    20     1    15    1
    21    15    16   ar
    22    16    17   ar
    23    17    18   ar
    24    18    19   ar
    25    19    20   ar
    26     7     8   ar
    27     8     3   ar
    28    14     9   ar
    29    20    15   ar
    30    24    25    1
    31    24    26    1
@<TRIPOS>MOLECULE
*****
 29 31 0 0 0
SMALL
GASTEIGER

@<TRIPOS>ATOM
      1 C          62.2623   86.1319   10.9409 C.3     1  UNL1        0.0564
      2 C          61.9979   81.4524   13.1840 C.3     1  UNL1        0.0310
      3 C          62.6489   82.3928   12.2136 C.ar    1  UNL1       -0.0221
      4 C          63.8187   81.9341   11.3944 C.ar    1  UNL1       -0.0043
      5 C          64.4697   82.8746   10.4240 C.ar    1  UNL1       -0.0006
      6 C          63.9509   84.2738   10.2728 C.ar    1  UNL1       -0.0037
      7 C          62.7811   84.7326   11.0920 C.ar    1  UNL1       -0.0155
      8 C          62.1301   83.7921   12.0624 C.ar    1  UNL1       -0.0079
      9 C          61.8965   85.8422    9.5153 C.ar    1  UNL1       -0.0152
     10 C          60.4997   86.0991    9.0324 C.ar    1  UNL1       -0.0037
     11 C          60.1339   85.8094    7.6068 C.ar    1  UNL1       -0.0003
     12 C          61.1647   85.2628    6.6642 C.ar    1  UNL1       -0.0000
     13 C          62.5614   85.0059    7.1471 C.ar    1  UNL1       -0.0003
     14 C          62.9273   85.2956    8.5727 C.ar    1  UNL1       -0.0037
     15 C          61.7435   87.5312   10.7896 C.ar    1  UNL1       -0.0152
     16 C          62.5374   88.5466   10.0224 C.ar    1  UNL1       -0.0037
     17 C          62.0186   89.9459    9.8712 C.ar    1  UNL1       -0.0003
     18 C          60.7059   90.3297   10.4872 C.ar    1  UNL1       -0.0000
     19 C          59.9120   89.3144   11.2544 C.ar    1  UNL1       -0.0003
     20 C          60.4308   87.9150   11.4057 C.ar    1  UNL1       -0.0037
     21 C          62.6281   86.4216   12.3664 C.3     1  UNL1        0.0140
     22 C          63.5563   87.5555   12.6869 C.3     1  UNL1        0.0222
     23 CA         63.9102   87.8546   14.1136 C.3     1  UNL1        0.0879
     24 N          64.2494   86.7353   15.0527 N.3     1  UNL1       -0.3179
     25 H1         64.1897   85.8458   14.5571 H       1  UNL1        0.1191
     26 H2         63.5919   86.7347   15.8325 H       1  UNL1        0.1191
     27 C          63.9251   89.2731   14.6011 C.2     1  UNL1        0.0644
     28 O          65.1313   90.1338   14.3678 O.co2   1  UNL1       -0.5478
     29 OXT        62.7338   89.8309   15.3219 O.co2   1  UNL1       -0.5478
@<TRIPOS>UNITY_ATOM_ATTR
28 1
charge -1
@<TRIPOS>BOND
     1     2     3    1
     2     3     4   ar
     3     4     5   ar
     4     5     6   ar
     5     6     7   ar
     6     7     1    1
     7     1    21    1
     8    21    22    1
     9    22    23    1
    10    23    24    1
    11    23    27    1
    12    27    28   ar
    13    27    29   ar
    14     1     9    1
    15     9    10   ar
    16    10    11   ar
    17    11    12   ar
    18    12    13   ar
    19    13    14   ar
    20     1    15    1
    21    15    16   ar
    22    16    17   ar
    23    17    18   ar
    24    18    19   ar
    25    19    20   ar
    26     7     8   ar
    27     8     3   ar
    28    14     9   ar
    29    20    15   ar
    30    24    25    1
    31    24    26    1
@<TRIPOS>MOLECULE
*****
 29 31 0 0 0
SMALL
GASTEIGER

@<TRIPOS>ATOM
      1 C          62.2790   85.9031   11.0462 C.3     1  UNL1        0.0564
      2 C          63.1358   90.9341   10.0690 C.3     1  UNL1        0.0310
      3 C          62.2090   89.8317   10.4882 C.ar    1  UNL1       -0.0221
      4 C          60.7838   90.1424   10.8380 C.ar    1  UNL1       -0.0043
      5 C          59.8571   89.0400   11.2572 C.ar    1  UNL1       -0.0006
      6 C          60.3554   87.6269   11.3266 C.ar    1  UNL1       -0.0037
      7 C          61.7805   87.3163   10.9768 C.ar    1  UNL1       -0.0155
      8 C          62.7073   88.4187   10.5576 C.ar    1  UNL1       -0.0079
      9 C          61.9443   85.7139    9.5964 C.ar    1  UNL1       -0.0152
     10 C          60.5657   86.0313    9.0972 C.ar    1  UNL1       -0.0037
     11 C          60.2310   85.8421    7.6474 C.ar    1  UNL1       -0.0003
     12 C          61.2748   85.3356    6.6966 C.ar    1  UNL1       -0.0000
     13 C          62.6532   85.0182    7.1956 C.ar    1  UNL1       -0.0003
     14 C          62.9880   85.2074    8.6456 C.ar    1  UNL1       -0.0037
     15 C          62.7774   84.4901   11.1155 C.ar    1  UNL1       -0.0152
     16 C          62.0129   83.4626   11.8966 C.ar    1  UNL1       -0.0037
     17 C          62.5113   82.0496   11.9659 C.ar    1  UNL1       -0.0003
     18 C          63.7741   81.6639   11.2543 C.ar    1  UNL1       -0.0000
     19 C          64.5386   82.6913   10.4732 C.ar    1  UNL1       -0.0003
     20 C          64.0402   84.1044   10.4039 C.ar    1  UNL1       -0.0037
     21 C          62.6137   86.0923   12.4961 C.3     1  UNL1        0.0140
     22 C          63.9040   85.5584   13.0438 C.3     1  UNL1        0.0222
     23 CA         64.0218   85.2336   14.5035 C.3     1  UNL1        0.0879
     24 N          65.1821   85.7569   15.2970 N.3     1  UNL1       -0.3179
     25 H1         65.7874   86.3097   14.6901 H       1  UNL1        0.1191
     26 H2         65.7106   84.9745   15.6829 H       1  UNL1        0.1191
     27 C          62.9793   84.3854   15.1696 C.2     1  UNL1        0.0644
     28 O          61.7054   85.0087   15.6585 O.co2   1  UNL1       -0.5478
     29 OXT        63.2105   82.9140   15.3469 O.co2   1  UNL1       -0.5478
@<TRIPOS>UNITY_ATOM_ATTR
28 1
charge -1
@<TRIPOS>BOND
     1     2     3    1
     2     3     4   ar
     3     4     5   ar
     4     5     6   ar
     5     6     7   ar
     6     7     1    1
     7     1    21    1
     8    21    22    1
     9    22    23    1
    10    23    24    1
    11    23    27    1
    12    27    28   ar
    13    27    29   ar
    14     1     9    1
    15     9    10   ar
    16    10    11   ar
    17    11    12   ar
    18    12    13   ar
    19    13    14   ar
    20     1    15    1
    21    15    16   ar
    22    16    17   ar
    23    17    18   ar
    24    18    19   ar
    25    19    20   ar
    26     7     8   ar
    27     8     3   ar
    28    14     9   ar
    29    20    15   ar
    30    24    25    1
    31    24    26    1
