@<TRIPOS>MOLECULE
*****
 41 46 0 0 0
SMALL
GASTEIGER

@<TRIPOS>ATOM
      1 C          61.7375   88.4724   11.3092 C.ar    1  UNL1        0.0040
      2 C          61.4284   87.3151   10.4064 C.ar    1  UNL1        0.0719
      3 C          62.1116   86.0999   10.9601 C.ar    1  UNL1        0.1049
      4 N          62.8429   86.5063   12.2052 N.ar    1  UNL1       -0.2242
      5 N          63.6895   85.7305   13.1703 N.ar    1  UNL1       -0.1422
      6 C          64.3048   86.4211   14.3512 C.ar    1  UNL1        0.2211
      7 N          64.0736   87.8874   14.5669 N.ar    1  UNL1       -0.2060
      8 C          63.2270   88.6631   13.6017 C.ar    1  UNL1        0.1515
      9 C          62.6117   87.9725   12.4209 C.ar    1  UNL1        0.1107
     10 C          60.5844   87.3643    9.1674 C.ar    1  UNL1        0.2543
     11 N          60.3512   86.2301    8.2138 N.ar    1  UNL1       -0.1042
     12 N          59.4480   86.7211    7.1214 N.ar    1  UNL1       -0.0714
     13 C          59.1229   88.1588    7.3999 C.ar    1  UNL1        0.4172
     14 O          59.8253   88.5562    8.6644 O.2     1  UNL1       -0.3888
     15 O          58.2490   89.0436    6.5613 O.3     1  UNL1       -0.4349
     16 C          58.8488   90.1946    5.8092 C.3     1  UNL1        0.1877
     17 C          58.0914   91.3200    5.1690 C.3     1  UNL1        0.0622
     18 C          59.0857   92.2431    4.5294 C.3     1  UNL1        0.0724
     19 N          60.4576   91.6882    4.7743 N.3     1  UNL1       -0.2944
     20 C          60.3112   90.4222    5.5652 C.3     1  UNL1        0.1128
     21 H          61.0149   92.3620    5.2996 H       1  UNL1        0.1234
     22 C          59.9002   90.2808   11.6325 C.3     1  UNL1        0.0047
     23 C          61.2568   89.8821   11.1315 C.3     1  UNL1        0.0241
     24 C          62.1324   90.8933   10.4528 C.3     1  UNL1        0.0047
     25 N          62.9958   90.1294   13.8175 N.pl3   1  UNL1       -0.2949
     26 H          62.0789   90.4877   13.8217 H       1  UNL1        0.1537
     27 C          64.1616   91.0497   14.0268 C.ar    1  UNL1        0.0775
     28 C          64.8507   91.6678   12.8464 C.ar    1  UNL1        0.0237
     29 C          66.0165   92.5880   13.0557 C.ar    1  UNL1        0.0821
     30 C          66.4934   92.8903   14.4454 C.ar    1  UNL1        0.1468
     31 F          67.6593   93.8106   14.6547 F       1  UNL1       -0.2039
     32 C          65.8044   92.2723   15.6258 C.ar    1  UNL1        0.0607
     33 C          64.6385   91.3519   15.4165 C.ar    1  UNL1        0.1557
     34 F          63.9495   90.7339   16.5968 F       1  UNL1       -0.2028
     35 C          66.7056   93.2061   11.8753 C.2     1  UNL1        0.2480
     36 O          67.8684   92.5076   11.2353 O.2     1  UNL1       -0.2701
     37 N          66.2317   94.5228   11.3350 N.am    1  UNL1       -0.3024
     38 H          65.4684   94.9812   11.7551 H       1  UNL1        0.1497
     39 C          66.9206   95.1409   10.1547 C.3     1  UNL1        0.0720
     40 C          67.3185   96.3580    9.3735 C.3     1  UNL1        0.0213
     41 C          67.7161   94.9944    8.8915 C.3     1  UNL1        0.0213
@<TRIPOS>BOND
     1    22    23    1
     2    23    24    1
     3    23     1    1
     4     1     2   ar
     5     2    10    1
     6    10    11   ar
     7    11    12   ar
     8    12    13   ar
     9    13    15    1
    10    16    15    1
    11    16    17    1
    12    17    18    1
    13    18    19    1
    14    19    20    1
    15    13    14   ar
    16     2     3   ar
    17     3     4   ar
    18     4     5   ar
    19     5     6   ar
    20     6     7   ar
    21     7     8   ar
    22     8    25    1
    23    25    27    1
    24    27    28   ar
    25    28    29   ar
    26    29    35    1
    27    35    36    2
    28    35    37   am
    29    37    39    1
    30    39    40    1
    31    40    41    1
    32    29    30   ar
    33    30    31    1
    34    30    32   ar
    35    32    33   ar
    36    33    34    1
    37     8     9   ar
    38     9     1   ar
    39    14    10   ar
    40     9     4   ar
    41    20    16    1
    42    33    27   ar
    43    41    39    1
    44    19    21    1
    45    25    26    1
    46    37    38    1
@<TRIPOS>MOLECULE
*****
 41 46 0 0 0
SMALL
GASTEIGER

@<TRIPOS>ATOM
      1 C          63.4323   89.2943   12.6670 C.ar    1  UNL1        0.0040
      2 C          63.7937   90.4748   11.8150 C.ar    1  UNL1        0.0719
      3 C          63.2231   90.2505   10.4461 C.ar    1  UNL1        0.1049
      4 N          62.5090   88.9314   10.4519 N.ar    1  UNL1       -0.2242
      5 N          61.7578   88.1920    9.3847 N.ar    1  UNL1       -0.1422
      6 C          61.1358   86.8617    9.6901 C.ar    1  UNL1        0.2211
      7 N          61.2651   86.2707   11.0627 N.ar    1  UNL1       -0.2060
      8 C          62.0163   87.0101   12.1299 C.ar    1  UNL1        0.1515
      9 C          62.6383   88.3404   11.8245 C.ar    1  UNL1        0.1107
     10 C          64.5865   91.6698   12.2549 C.ar    1  UNL1        0.2543
     11 N          64.8231   92.0977   13.6730 N.ar    1  UNL1       -0.1042
     12 N          65.6648   93.3390   13.6484 N.ar    1  UNL1       -0.0714
     13 C          65.9484   93.6785   12.2151 C.ar    1  UNL1        0.4172
     14 O          65.2820   92.6468   11.3539 O.2     1  UNL1       -0.3888
     15 O          66.7564   94.8447   11.7284 O.3     1  UNL1       -0.4349
     16 C          66.5509   95.3721   10.3392 C.3     1  UNL1        0.1877
     17 C          67.4361   95.1104    9.1569 C.3     1  UNL1        0.0622
     18 C          66.8565   95.8302    7.9755 C.3     1  UNL1        0.0724
     19 N          65.6130   96.5369    8.4277 N.3     1  UNL1       -0.2944
     20 C          65.4242   96.2537    9.8885 C.3     1  UNL1        0.1128
     21 H          64.8092   96.1937    7.9019 H       1  UNL1        0.1234
     22 C          63.1336   89.9263   15.1693 C.3     1  UNL1        0.0047
     23 C          63.8002   89.1015   14.1083 C.3     1  UNL1        0.0241
     24 C          64.8346   88.0842   14.4887 C.3     1  UNL1        0.0047
     25 N          62.1456   86.4191   13.5025 N.pl3   1  UNL1       -0.2949
     26 H          61.8325   86.9243   14.2874 H       1  UNL1        0.1537
     27 C          62.7519   85.0586   13.6793 C.ar    1  UNL1        0.0775
     28 C          62.7165   84.0695   12.5521 C.ar    1  UNL1        0.0237
     29 C          63.3227   82.7089   12.7288 C.ar    1  UNL1        0.0821
     30 C          63.9644   82.3374   14.0327 C.ar    1  UNL1        0.1468
     31 F          64.5707   80.9767   14.2094 F       1  UNL1       -0.2039
     32 C          63.9998   83.3264   15.1599 C.ar    1  UNL1        0.0607
     33 C          63.3935   84.6870   14.9832 C.ar    1  UNL1        0.1557
     34 F          63.4290   85.6760   16.1104 F       1  UNL1       -0.2028
     35 C          63.2873   81.7199   11.6016 C.2     1  UNL1        0.2480
     36 O          63.7190   82.1344   10.2262 O.2     1  UNL1       -0.2701
     37 N          62.8203   80.3162   11.8498 N.am    1  UNL1       -0.3024
     38 H          62.5370   80.0441   12.7526 H       1  UNL1        0.1497
     39 C          62.7849   79.3271   10.7227 C.3     1  UNL1        0.0720
     40 C          62.8433   77.9095   10.2362 C.3     1  UNL1        0.0213
     41 C          62.6651   79.0317    9.2570 C.3     1  UNL1        0.0213
@<TRIPOS>BOND
     1    22    23    1
     2    23    24    1
     3    23     1    1
     4     1     2   ar
     5     2    10    1
     6    10    11   ar
     7    11    12   ar
     8    12    13   ar
     9    13    15    1
    10    16    15    1
    11    16    17    1
    12    17    18    1
    13    18    19    1
    14    19    20    1
    15    13    14   ar
    16     2     3   ar
    17     3     4   ar
    18     4     5   ar
    19     5     6   ar
    20     6     7   ar
    21     7     8   ar
    22     8    25    1
    23    25    27    1
    24    27    28   ar
    25    28    29   ar
    26    29    35    1
    27    35    36    2
    28    35    37   am
    29    37    39    1
    30    39    40    1
    31    40    41    1
    32    29    30   ar
    33    30    31    1
    34    30    32   ar
    35    32    33   ar
    36    33    34    1
    37     8     9   ar
    38     9     1   ar
    39    14    10   ar
    40     9     4   ar
    41    20    16    1
    42    33    27   ar
    43    41    39    1
    44    19    21    1
    45    25    26    1
    46    37    38    1
