@<TRIPOS>MOLECULE
*****
 43 46 0 0 0
SMALL
GASTEIGER

@<TRIPOS>ATOM
      1 N          62.1251   85.6323   12.3588 N.3     1  UNL1       -0.2700
      2 C          62.9936   86.8288   12.6127 C.3     1  UNL1        0.0816
      3 C          62.6808   87.8586   11.5680 C.3     1  UNL1        0.0981
      4 C          61.6190   87.2988   10.6685 C.3     1  UNL1        0.0483
      5 C          61.2755   85.9229   11.1572 C.3     1  UNL1        0.0770
      6 C          61.0080   87.9931    9.4875 C.ar    1  UNL1       -0.0206
      7 C          60.7303   89.4661    9.5444 C.ar    1  UNL1       -0.0042
      8 C          60.1193   90.1603    8.3635 C.ar    1  UNL1       -0.0003
      9 C          59.7859   89.3815    7.1255 C.ar    1  UNL1        0.0001
     10 C          60.0635   87.9086    7.0686 C.ar    1  UNL1       -0.0003
     11 C          60.6745   87.2144    8.2496 C.ar    1  UNL1       -0.0042
     12 C          59.1749   90.0758    5.9446 C.2     1  UNL1        0.0047
     13 C          59.9388   91.1495    5.2280 C.2     1  UNL1        0.0580
     14 C          59.3279   91.8439    4.0471 C.2     1  UNL1        0.2497
     15 O          57.8369   91.9669    3.9382 O.2     1  UNL1       -0.2698
     16 N          60.2079   92.4151    2.9750 N.am    1  UNL1       -0.2794
     17 H          61.1864   92.3344    3.0464 H       1  UNL1        0.1552
     18 C          59.5968   93.1094    1.7941 C.ar    1  UNL1        0.0636
     19 C          58.8537   92.3169    0.7599 C.ar    1  UNL1        0.0159
     20 C          58.2427   93.0113   -0.4210 C.ar    1  UNL1        0.0014
     21 C          58.3748   94.4982   -0.5677 C.ar    1  UNL1        0.0013
     22 C          59.1180   95.2908    0.4665 C.ar    1  UNL1        0.0153
     23 C          59.7290   94.5964    1.6474 C.ar    1  UNL1        0.0552
     24 N          60.4722   95.3889    2.6816 N.pl3   1  UNL1       -0.3560
     25 H          60.5589   96.3649    2.5853 H       1  UNL1        0.1424
     26 H          60.8732   94.9332    3.4566 H       1  UNL1        0.1424
     27 C          63.3180   89.2110   11.4446 C.2     1  UNL1        0.2274
     28 O          63.2732   89.9446   10.1370 O.2     1  UNL1       -0.2747
     29 N          63.9999   89.8297   12.6286 N.am    1  UNL1       -0.2839
     30 H          64.0293   89.3482   13.4869 H       1  UNL1        0.1549
     31 C          64.6371   91.1820   12.5052 C.ar    1  UNL1        0.0504
     32 C          64.5261   91.9490   11.2209 C.ar    1  UNL1        0.0155
     33 C          65.1633   93.3013   11.0975 C.ar    1  UNL1        0.0127
     34 C          65.9115   93.8866   12.2584 C.ar    1  UNL1        0.0578
     35 CL         66.5487   95.2390   12.1350 Cl      1  UNL1       -0.0822
     36 C          66.0225   93.1196   13.5427 C.ar    1  UNL1        0.0127
     37 C          65.3853   91.7674   13.6661 C.ar    1  UNL1        0.0155
     38 C          62.1089   84.3675   13.1650 C.3     1  UNL1        0.0993
     39 C          64.0779   83.6362   12.8680 C.3     1  UNL1        0.0307
     40 C          63.2638   84.0356   14.0629 C.3     1  UNL1        0.1031
     41 C          62.4497   84.4350   15.2576 C.3     1  UNL1        0.0307
     42 O          64.4186   83.7037   14.9607 O.3     1  UNL1       -0.3854
     43 H          65.1639   83.3887   14.4258 H       1  UNL1        0.2103
@<TRIPOS>BOND
     1    39    40    1
     2    40    41    1
     3    40    42    1
     4    40    38    1
     5    38     1    1
     6     1     2    1
     7     2     3    1
     8     3    27    1
     9    27    28    2
    10    27    29   am
    11    29    31    1
    12    31    32   ar
    13    32    33   ar
    14    33    34   ar
    15    34    35    1
    16    34    36   ar
    17    36    37   ar
    18     3     4    1
    19     4     6    1
    20     6     7   ar
    21     7     8   ar
    22     8     9   ar
    23     9    12    1
    24    12    13    2
    25    13    14    1
    26    14    15    2
    27    14    16   am
    28    16    18    1
    29    18    19   ar
    30    19    20   ar
    31    20    21   ar
    32    21    22   ar
    33    22    23   ar
    34    23    24    1
    35     9    10   ar
    36    10    11   ar
    37     4     5    1
    38     5     1    1
    39    37    31   ar
    40    11     6   ar
    41    23    18   ar
    42    42    43    1
    43    29    30    1
    44    16    17    1
    45    24    25    1
    46    24    26    1
@<TRIPOS>MOLECULE
*****
 43 46 0 0 0
SMALL
GASTEIGER

@<TRIPOS>ATOM
      1 N          62.5161   83.1602   14.0662 N.3     1  UNL1       -0.2700
      2 C          63.2827   84.3476   14.5689 C.3     1  UNL1        0.0816
      3 C          63.1633   85.4417   13.5498 C.3     1  UNL1        0.0981
      4 C          62.3229   84.9307   12.4172 C.3     1  UNL1        0.0483
      5 C          61.9230   83.5207   12.7363 C.3     1  UNL1        0.0770
      6 C          61.9484   85.6954   11.1824 C.ar    1  UNL1       -0.0206
      7 C          60.8902   86.7564   11.2494 C.ar    1  UNL1       -0.0042
      8 C          60.5157   87.5211   10.0145 C.ar    1  UNL1       -0.0003
      9 C          61.1994   87.2249    8.7126 C.ar    1  UNL1        0.0001
     10 C          62.2575   86.1639    8.6456 C.ar    1  UNL1       -0.0003
     11 C          62.6320   85.3992    9.8805 C.ar    1  UNL1       -0.0042
     12 C          60.8248   87.9896    7.4777 C.2     1  UNL1        0.0047
     13 C          60.1496   89.3236    7.5978 C.2     1  UNL1        0.0580
     14 C          59.7750   90.0885    6.3630 C.2     1  UNL1        0.2497
     15 O          58.3392   90.1666    5.9359 O.2     1  UNL1       -0.2698
     16 N          60.8361   90.7752    5.5553 N.am    1  UNL1       -0.2794
     17 H          61.7785   90.7240    5.8355 H       1  UNL1        0.1552
     18 C          60.4614   91.5400    4.3205 C.ar    1  UNL1        0.0636
     19 C          59.0429   91.9814    4.1132 C.ar    1  UNL1        0.0159
     20 C          58.6684   92.7462    2.8784 C.ar    1  UNL1        0.0014
     21 C          59.7123   93.0696    1.8509 C.ar    1  UNL1        0.0013
     22 C          61.1308   92.6282    2.0582 C.ar    1  UNL1        0.0153
     23 C          61.5053   91.8634    3.2930 C.ar    1  UNL1        0.0552
     24 N          62.9238   91.4220    3.5003 N.pl3   1  UNL1       -0.3560
     25 H          63.6090   91.6342    2.8260 H       1  UNL1        0.1424
     26 H          63.1697   90.9200    4.3108 H       1  UNL1        0.1424
     27 C          63.7766   86.8072   13.6463 C.2     1  UNL1        0.2274
     28 O          64.9187   87.0516   14.5875 O.2     1  UNL1       -0.2747
     29 N          63.2478   87.9284   12.8017 N.am    1  UNL1       -0.2839
     30 H          62.4982   87.7680   12.1839 H       1  UNL1        0.1549
     31 C          63.8611   89.2939   12.8982 C.ar    1  UNL1        0.0504
     32 C          63.7255   90.2593   11.7582 C.ar    1  UNL1        0.0155
     33 C          64.3389   91.6247   11.8548 C.ar    1  UNL1        0.0127
     34 C          65.0878   92.0248   13.0914 C.ar    1  UNL1        0.0578
     35 CL         65.7011   93.3903   13.1879 Cl      1  UNL1       -0.0822
     36 C          65.2234   91.0594   14.2314 C.ar    1  UNL1        0.0127
     37 C          64.6100   89.6939   14.1348 C.ar    1  UNL1        0.0155
     38 C          62.3686   81.8437   14.7697 C.3     1  UNL1        0.0993
     39 C          60.7474   80.6188   14.1604 C.3     1  UNL1        0.0307
     40 C          62.2353   80.5790   13.9742 C.3     1  UNL1        0.1031
     41 C          63.7231   80.5393   13.7881 C.3     1  UNL1        0.0307
     42 O          62.1021   79.3144   13.1788 O.3     1  UNL1       -0.3854
     43 H          61.1662   79.0660   13.1208 H       1  UNL1        0.2103
@<TRIPOS>BOND
     1    39    40    1
     2    40    41    1
     3    40    42    1
     4    40    38    1
     5    38     1    1
     6     1     2    1
     7     2     3    1
     8     3    27    1
     9    27    28    2
    10    27    29   am
    11    29    31    1
    12    31    32   ar
    13    32    33   ar
    14    33    34   ar
    15    34    35    1
    16    34    36   ar
    17    36    37   ar
    18     3     4    1
    19     4     6    1
    20     6     7   ar
    21     7     8   ar
    22     8     9   ar
    23     9    12    1
    24    12    13    2
    25    13    14    1
    26    14    15    2
    27    14    16   am
    28    16    18    1
    29    18    19   ar
    30    19    20   ar
    31    20    21   ar
    32    21    22   ar
    33    22    23   ar
    34    23    24    1
    35     9    10   ar
    36    10    11   ar
    37     4     5    1
    38     5     1    1
    39    37    31   ar
    40    11     6   ar
    41    23    18   ar
    42    42    43    1
    43    29    30    1
    44    16    17    1
    45    24    25    1
    46    24    26    1
@<TRIPOS>MOLECULE
*****
 43 46 0 0 0
SMALL
GASTEIGER

@<TRIPOS>ATOM
      1 N          58.6553   89.2569    6.8210 N.3     1  UNL1       -0.2700
      2 C          59.0906   87.8351    7.0192 C.3     1  UNL1        0.0816
      3 C          60.0771   87.8056    8.1489 C.3     1  UNL1        0.0981
      4 C          60.2514   89.2090    8.6488 C.3     1  UNL1        0.0483
      5 C          59.3727   90.1060    7.8282 C.3     1  UNL1        0.0770
      6 C          61.1472   89.6398    9.7722 C.ar    1  UNL1       -0.0206
      7 C          62.4516   90.3175    9.4737 C.ar    1  UNL1       -0.0042
      8 C          63.3473   90.7483   10.5971 C.ar    1  UNL1       -0.0003
      9 C          62.9386   90.5014   12.0191 C.ar    1  UNL1        0.0001
     10 C          61.6342   89.8237   12.3177 C.ar    1  UNL1       -0.0003
     11 C          60.7385   89.3929   11.1942 C.ar    1  UNL1       -0.0042
     12 C          63.8344   90.9322   13.1425 C.2     1  UNL1        0.0047
     13 C          65.0076   91.8250   12.8659 C.2     1  UNL1        0.0580
     14 C          65.9034   92.2558   13.9892 C.2     1  UNL1        0.2497
     15 O          65.3096   92.7270   15.2836 O.2     1  UNL1       -0.2698
     16 N          67.3932   92.2156   13.8183 N.am    1  UNL1       -0.2794
     17 H          67.7830   91.9063   12.9688 H       1  UNL1        0.1552
     18 C          68.2889   92.6464   14.9416 C.ar    1  UNL1        0.0636
     19 C          69.1390   91.6358   15.6529 C.ar    1  UNL1        0.0159
     20 C          70.0348   92.0668   16.7763 C.ar    1  UNL1        0.0014
     21 C          70.0803   93.5084   17.1884 C.ar    1  UNL1        0.0013
     22 C          69.2302   94.5190   16.4771 C.ar    1  UNL1        0.0153
     23 C          68.3345   94.0880   15.3537 C.ar    1  UNL1        0.0552
     24 N          67.4843   95.0986   14.6425 N.pl3   1  UNL1       -0.3560
     25 H          67.5142   96.0448   14.9129 H       1  UNL1        0.1424
     26 H          66.8964   94.8158   13.9052 H       1  UNL1        0.1424
     27 C          60.7679   86.5866    8.6845 C.2     1  UNL1        0.2274
     28 O          60.5285   85.2490    8.0493 O.2     1  UNL1       -0.2747
     29 N          61.6980   86.7052    9.8552 N.am    1  UNL1       -0.2839
     30 H          61.8551   87.5831   10.2721 H       1  UNL1        0.1549
     31 C          62.3888   85.4862   10.3909 C.ar    1  UNL1        0.0504
     32 C          63.2268   84.6382    9.4806 C.ar    1  UNL1        0.0155
     33 C          63.9175   83.4192   10.0162 C.ar    1  UNL1        0.0127
     34 C          63.7704   83.0483   11.4621 C.ar    1  UNL1        0.0578
     35 CL         64.4612   81.8292   11.9978 Cl      1  UNL1       -0.0822
     36 C          62.9324   83.8963   12.3724 C.ar    1  UNL1        0.0127
     37 C          62.2417   85.1152   11.8368 C.ar    1  UNL1        0.0155
     38 C          57.6747   89.7439    5.7957 C.3     1  UNL1        0.0993
     39 C          59.3434   90.9074    5.1941 C.3     1  UNL1        0.0307
     40 C          57.8552   91.0939    5.1672 C.3     1  UNL1        0.1031
     41 C          56.3672   91.2803    5.1402 C.3     1  UNL1        0.0307
     42 O          58.0357   92.4438    4.5386 O.3     1  UNL1       -0.3854
     43 H          58.9819   92.6211    4.4196 H       1  UNL1        0.2103
@<TRIPOS>BOND
     1    39    40    1
     2    40    41    1
     3    40    42    1
     4    40    38    1
     5    38     1    1
     6     1     2    1
     7     2     3    1
     8     3    27    1
     9    27    28    2
    10    27    29   am
    11    29    31    1
    12    31    32   ar
    13    32    33   ar
    14    33    34   ar
    15    34    35    1
    16    34    36   ar
    17    36    37   ar
    18     3     4    1
    19     4     6    1
    20     6     7   ar
    21     7     8   ar
    22     8     9   ar
    23     9    12    1
    24    12    13    2
    25    13    14    1
    26    14    15    2
    27    14    16   am
    28    16    18    1
    29    18    19   ar
    30    19    20   ar
    31    20    21   ar
    32    21    22   ar
    33    22    23   ar
    34    23    24    1
    35     9    10   ar
    36    10    11   ar
    37     4     5    1
    38     5     1    1
    39    37    31   ar
    40    11     6   ar
    41    23    18   ar
    42    42    43    1
    43    29    30    1
    44    16    17    1
    45    24    25    1
    46    24    26    1
