@<TRIPOS>MOLECULE
*****
 27 29 0 0 0
SMALL
GASTEIGER

@<TRIPOS>ATOM
      1 N          62.3956   87.9926   11.8126 N.am    1  UNL1       -0.2969
      2 C          62.3236   87.0098   10.6818 C.2     1  UNL1        0.2461
      3 O          61.9508   87.4760    9.3056 O.2     1  UNL1       -0.2701
      4 H          62.6403   87.6866   12.7158 H       1  UNL1        0.1501
      5 C          62.6243   85.5608   10.9270 C.ar    1  UNL1        0.0540
      6 C          63.1566   84.7067    9.8148 C.ar    1  UNL1        0.0061
      7 C          63.4573   83.2578   10.0600 C.ar    1  UNL1        0.0198
      8 C          63.2257   82.6630   11.4175 C.ar    1  UNL1        0.0892
      9 N          63.4282   81.2768   11.9538 N.ar    1  UNL1       -0.2245
     10 C          63.0211   81.2744   13.3974 C.ar    1  UNL1        0.1567
     11 N          63.0610   80.0944   14.3228 N.pl3   1  UNL1       -0.3375
     12 S          62.5670   82.6590   13.7534 S.2     1  UNL1       -0.0520
     13 C          62.6935   83.5172   12.5297 C.ar    1  UNL1        0.0498
     14 C          62.3928   84.9661   12.2844 C.ar    1  UNL1        0.0126
     15 H          63.3766   79.2217   13.9943 H       1  UNL1        0.1442
     16 H          62.7716   80.1928   15.2587 H       1  UNL1        0.1442
     17 C          62.0949   89.4416   11.5674 C.3     1  UNL1        0.1166
     18 C          65.3312   92.5276   12.0700 C.ar    1  UNL1        0.0756
     19 C          64.6473   92.3670   10.7447 C.ar    1  UNL1        0.0062
     20 C          63.5686   91.3383   10.5771 C.ar    1  UNL1       -0.0024
     21 C          63.1736   90.4703   11.7349 C.ar    1  UNL1       -0.0026
     22 C          63.8575   90.6309   13.0603 C.ar    1  UNL1       -0.0024
     23 C          64.9363   91.6596   13.2278 C.ar    1  UNL1        0.0062
     24 C          66.4099   93.5563   12.2375 C.2     1  UNL1        0.3413
     25 O          66.9379   93.8734   13.6052 O.2     1  UNL1       -0.2449
     26 C          66.5367   95.6756   10.7401 C.3     1  UNL1        0.2560
     27 O          66.9607   94.2678   11.0374 O.3     1  UNL1       -0.4413
@<TRIPOS>BOND
     1    26    27    1
     2    27    24    1
     3    24    25    2
     4    24    18    1
     5    18    19   ar
     6    19    20   ar
     7    20    21   ar
     8    21    17    1
     9    17     1    1
    10     1     2   am
    11     2     3    2
    12     2     5    1
    13     5     6   ar
    14     6     7   ar
    15     7     8   ar
    16     8     9   ar
    17     9    10   ar
    18    10    11    1
    19    10    12   ar
    20    12    13   ar
    21    13    14   ar
    22    21    22   ar
    23    22    23   ar
    24    23    18   ar
    25    14     5   ar
    26    13     8   ar
    27     1     4    1
    28    11    15    1
    29    11    16    1
@<TRIPOS>MOLECULE
*****
 27 29 0 0 0
SMALL
GASTEIGER

@<TRIPOS>ATOM
      1 N          64.6817   88.0620   14.5406 N.am    1  UNL1       -0.2969
      2 C          64.0709   89.4147   14.7571 C.2     1  UNL1        0.2461
      3 O          62.8082   89.5484   15.5557 O.2     1  UNL1       -0.2701
      4 H          65.5104   87.9742   14.0165 H       1  UNL1        0.1501
      5 C          64.7227   90.6339   14.1749 C.ar    1  UNL1        0.0540
      6 C          65.5920   91.5025   15.0348 C.ar    1  UNL1        0.0061
      7 C          66.2438   92.7216   14.4526 C.ar    1  UNL1        0.0198
      8 C          66.0263   93.0720   13.0104 C.ar    1  UNL1        0.0892
      9 N          66.5335   94.2023   12.1646 N.ar    1  UNL1       -0.2245
     10 C          65.9775   94.0321   10.7819 C.ar    1  UNL1        0.1567
     11 N          66.2282   94.9382    9.6131 N.pl3   1  UNL1       -0.3375
     12 S          65.1268   92.7967   10.7732 S.2     1  UNL1       -0.0520
     13 C          65.1570   92.2033   12.1505 C.ar    1  UNL1        0.0498
     14 C          64.5052   90.9842   12.7327 C.ar    1  UNL1        0.0126
     15 H          66.8047   95.7294    9.7183 H       1  UNL1        0.1442
     16 H          65.8164   94.7418    8.7407 H       1  UNL1        0.1442
     17 C          64.0298   86.8428   15.1228 C.3     1  UNL1        0.1166
     18 C          63.5598   83.1314   12.6220 C.ar    1  UNL1        0.0756
     19 C          64.2865   83.0656   13.9326 C.ar    1  UNL1        0.0062
     20 C          64.4431   84.3028   14.7662 C.ar    1  UNL1       -0.0024
     21 C          63.8732   85.6057   14.2892 C.ar    1  UNL1       -0.0026
     22 C          63.1465   85.6715   12.9786 C.ar    1  UNL1       -0.0024
     23 C          62.9899   84.4343   12.1450 C.ar    1  UNL1        0.0062
     24 C          63.4032   81.8943   11.7884 C.2     1  UNL1        0.3413
     25 O          63.8456   81.8947   10.3551 O.2     1  UNL1       -0.2449
     26 C          61.8243   80.7696   13.5181 C.3     1  UNL1        0.2560
     27 O          62.8041   80.6567   12.3880 O.3     1  UNL1       -0.4413
@<TRIPOS>BOND
     1    26    27    1
     2    27    24    1
     3    24    25    2
     4    24    18    1
     5    18    19   ar
     6    19    20   ar
     7    20    21   ar
     8    21    17    1
     9    17     1    1
    10     1     2   am
    11     2     3    2
    12     2     5    1
    13     5     6   ar
    14     6     7   ar
    15     7     8   ar
    16     8     9   ar
    17     9    10   ar
    18    10    11    1
    19    10    12   ar
    20    12    13   ar
    21    13    14   ar
    22    21    22   ar
    23    22    23   ar
    24    23    18   ar
    25    14     5   ar
    26    13     8   ar
    27     1     4    1
    28    11    15    1
    29    11    16    1
@<TRIPOS>MOLECULE
*****
 27 29 0 0 0
SMALL
GASTEIGER

@<TRIPOS>ATOM
      1 N          62.4400   87.9542   11.8123 N.am    1  UNL1       -0.2969
      2 C          62.3426   86.9657   10.6883 C.2     1  UNL1        0.2461
      3 O          61.9484   87.4264    9.3163 O.2     1  UNL1       -0.2701
      4 H          62.6987   87.6518   12.7128 H       1  UNL1        0.1501
      5 C          62.6393   85.5164   10.9363 C.ar    1  UNL1        0.0540
      6 C          63.1972   84.6657    9.8340 C.ar    1  UNL1        0.0061
      7 C          63.4939   83.2165   10.0820 C.ar    1  UNL1        0.0198
      8 C          63.2327   82.6178   11.4324 C.ar    1  UNL1        0.0892
      9 N          63.4247   81.2304   11.9694 N.ar    1  UNL1       -0.2245
     10 C          62.9855   81.2237   13.4036 C.ar    1  UNL1        0.1567
     11 N          63.0060   80.0413   14.3265 N.pl3   1  UNL1       -0.3375
     12 S          62.5221   82.6069   13.7530 S.2     1  UNL1       -0.0520
     13 C          62.6749   83.4685   12.5347 C.ar    1  UNL1        0.0498
     14 C          62.3782   84.9177   12.2867 C.ar    1  UNL1        0.0126
     15 H          63.3298   79.1697   14.0028 H       1  UNL1        0.1442
     16 H          62.6956   80.1368   15.2559 H       1  UNL1        0.1442
     17 C          62.1433   89.4036   11.5643 C.3     1  UNL1        0.1166
     18 C          65.3347   92.5022   12.2447 C.ar    1  UNL1        0.0756
     19 C          64.8849   91.6275   13.3773 C.ar    1  UNL1        0.0062
     20 C          63.8211   90.5947   13.1505 C.ar    1  UNL1       -0.0024
     21 C          63.2071   90.4364   11.7911 C.ar    1  UNL1       -0.0026
     22 C          63.6569   91.3110   10.6585 C.ar    1  UNL1       -0.0024
     23 C          64.7207   92.3439   10.8853 C.ar    1  UNL1        0.0062
     24 C          66.3985   93.5350   12.4715 C.2     1  UNL1        0.3413
     25 O          66.9843   94.2766   11.3067 O.2     1  UNL1       -0.2449
     26 C          67.8826   92.9245   14.5147 C.3     1  UNL1        0.2560
     27 O          66.8766   93.8263   13.8632 O.3     1  UNL1       -0.4413
@<TRIPOS>BOND
     1    26    27    1
     2    27    24    1
     3    24    25    2
     4    24    18    1
     5    18    19   ar
     6    19    20   ar
     7    20    21   ar
     8    21    17    1
     9    17     1    1
    10     1     2   am
    11     2     3    2
    12     2     5    1
    13     5     6   ar
    14     6     7   ar
    15     7     8   ar
    16     8     9   ar
    17     9    10   ar
    18    10    11    1
    19    10    12   ar
    20    12    13   ar
    21    13    14   ar
    22    21    22   ar
    23    22    23   ar
    24    23    18   ar
    25    14     5   ar
    26    13     8   ar
    27     1     4    1
    28    11    15    1
    29    11    16    1
@<TRIPOS>MOLECULE
*****
 27 29 0 0 0
SMALL
GASTEIGER

@<TRIPOS>ATOM
      1 N          62.9377   89.4035   10.4286 N.am    1  UNL1       -0.2969
      2 C          63.0158   89.9070   11.8394 C.2     1  UNL1        0.2461
      3 O          62.1029   89.3443   12.8882 O.2     1  UNL1       -0.2701
      4 H          63.5368   89.7728    9.7402 H       1  UNL1        0.1501
      5 C          64.0069   90.9732   12.2014 C.ar    1  UNL1        0.0540
      6 C          64.3731   92.0280   11.1998 C.ar    1  UNL1        0.0061
      7 C          65.3641   93.0942   11.5619 C.ar    1  UNL1        0.0198
      8 C          65.9889   93.1056   12.9255 C.ar    1  UNL1        0.0892
      9 N          66.9893   94.0233   13.5635 N.ar    1  UNL1       -0.2245
     10 C          67.2414   93.5356   14.9595 C.ar    1  UNL1        0.1567
     11 N          68.1743   94.1577   15.9558 N.pl3   1  UNL1       -0.3375
     12 S          66.3967   92.3165   15.1841 S.2     1  UNL1       -0.0520
     13 C          65.6227   92.0508   13.9271 C.ar    1  UNL1        0.0498
     14 C          64.6317   90.9846   13.5650 C.ar    1  UNL1        0.0126
     15 H          68.6886   94.9615   15.7135 H       1  UNL1        0.1442
     16 H          68.2722   93.7623   16.8521 H       1  UNL1        0.1442
     17 C          61.9466   88.3372   10.0665 C.3     1  UNL1        0.1166
     18 C          63.0273   83.9976   10.5663 C.ar    1  UNL1        0.0756
     19 C          62.5844   84.8017   11.7526 C.ar    1  UNL1        0.0062
     20 C          62.2242   86.2482   11.5861 C.ar    1  UNL1       -0.0024
     21 C          62.3068   86.8907   10.2331 C.ar    1  UNL1       -0.0026
     22 C          62.7497   86.0867    9.0468 C.ar    1  UNL1       -0.0024
     23 C          63.1099   84.6401    9.2134 C.ar    1  UNL1        0.0062
     24 C          63.3875   82.5511   10.7329 C.2     1  UNL1        0.3413
     25 O          64.6124   82.0014   10.0640 O.2     1  UNL1       -0.2449
     26 C          63.0313   81.1302   12.8786 C.3     1  UNL1        0.2560
     27 O          62.5228   81.6543   11.5683 O.3     1  UNL1       -0.4413
@<TRIPOS>BOND
     1    26    27    1
     2    27    24    1
     3    24    25    2
     4    24    18    1
     5    18    19   ar
     6    19    20   ar
     7    20    21   ar
     8    21    17    1
     9    17     1    1
    10     1     2   am
    11     2     3    2
    12     2     5    1
    13     5     6   ar
    14     6     7   ar
    15     7     8   ar
    16     8     9   ar
    17     9    10   ar
    18    10    11    1
    19    10    12   ar
    20    12    13   ar
    21    13    14   ar
    22    21    22   ar
    23    22    23   ar
    24    23    18   ar
    25    14     5   ar
    26    13     8   ar
    27     1     4    1
    28    11    15    1
    29    11    16    1
@<TRIPOS>MOLECULE
*****
 27 29 0 0 0
SMALL
GASTEIGER

@<TRIPOS>ATOM
      1 N          62.7147   89.3280   10.2087 N.am    1  UNL1       -0.2969
      2 C          62.8965   89.9130   11.5779 C.2     1  UNL1        0.2461
      3 O          62.1135   89.3689   12.7359 O.2     1  UNL1       -0.2701
      4 H          63.2287   89.6851    9.4487 H       1  UNL1        0.1501
      5 C          63.8612   91.0421   11.7892 C.ar    1  UNL1        0.0540
      6 C          64.4888   91.2503   13.1355 C.ar    1  UNL1        0.0061
      7 C          65.4534   92.3794   13.3467 C.ar    1  UNL1        0.0198
      8 C          65.7905   93.3001   12.2116 C.ar    1  UNL1        0.0892
      9 N          66.6993   94.4901   12.1203 N.ar    1  UNL1       -0.2245
     10 C          66.6334   95.0172   10.7176 C.ar    1  UNL1        0.1567
     11 N          67.3850   96.2007   10.1841 N.pl3   1  UNL1       -0.3375
     12 S          65.6838   94.1530    9.9419 S.2     1  UNL1       -0.0520
     13 C          65.1630   93.0918   10.8652 C.ar    1  UNL1        0.0498
     14 C          64.1983   91.9628   10.6540 C.ar    1  UNL1        0.0126
     15 H          67.9883   96.7074   10.7743 H       1  UNL1        0.1442
     16 H          67.2749   96.4706    9.2438 H       1  UNL1        0.1442
     17 C          61.7500   88.1989    9.9974 C.3     1  UNL1        0.1166
     18 C          63.0953   83.9473   10.6006 C.ar    1  UNL1        0.0756
     19 C          62.5306   84.7258   11.7518 C.ar    1  UNL1        0.0062
     20 C          62.0822   86.1430   11.5507 C.ar    1  UNL1       -0.0024
     21 C          62.1984   86.7818   10.1985 C.ar    1  UNL1       -0.0026
     22 C          62.7631   86.0034    9.0474 C.ar    1  UNL1       -0.0024
     23 C          63.2116   84.5861    9.2484 C.ar    1  UNL1        0.0062
     24 C          63.5437   82.5301   10.8016 C.2     1  UNL1        0.3413
     25 O          64.7261   82.0030   10.0440 O.2     1  UNL1       -0.2449
     26 C          63.4519   81.2424   13.0562 C.3     1  UNL1        0.2560
     27 O          62.8097   81.6401   11.7603 O.3     1  UNL1       -0.4413
@<TRIPOS>BOND
     1    26    27    1
     2    27    24    1
     3    24    25    2
     4    24    18    1
     5    18    19   ar
     6    19    20   ar
     7    20    21   ar
     8    21    17    1
     9    17     1    1
    10     1     2   am
    11     2     3    2
    12     2     5    1
    13     5     6   ar
    14     6     7   ar
    15     7     8   ar
    16     8     9   ar
    17     9    10   ar
    18    10    11    1
    19    10    12   ar
    20    12    13   ar
    21    13    14   ar
    22    21    22   ar
    23    22    23   ar
    24    23    18   ar
    25    14     5   ar
    26    13     8   ar
    27     1     4    1
    28    11    15    1
    29    11    16    1
@<TRIPOS>MOLECULE
*****
 27 29 0 0 0
SMALL
GASTEIGER

@<TRIPOS>ATOM
      1 N          64.2102   87.6332   14.2421 N.am    1  UNL1       -0.2969
      2 C          63.9920   89.0752   14.5929 C.2     1  UNL1        0.2461
      3 O          63.5369   89.4510   15.9719 O.2     1  UNL1       -0.2701
      4 H          64.5089   87.3866   13.3370 H       1  UNL1        0.1501
      5 C          64.2290   90.1414   13.5647 C.ar    1  UNL1        0.0540
      6 C          63.4752   90.1137   12.2681 C.ar    1  UNL1        0.0061
      7 C          63.7122   91.1799   11.2400 C.ar    1  UNL1        0.0198
      8 C          64.7029   92.2737   11.5084 C.ar    1  UNL1        0.0892
      9 N          65.1440   93.4513   10.6905 N.ar    1  UNL1       -0.2245
     10 C          66.1704   94.2067   11.4816 C.ar    1  UNL1        0.1567
     11 N          66.8792   95.4538   11.0430 N.pl3   1  UNL1       -0.3375
     12 S          66.3636   93.4960   12.7884 S.2     1  UNL1       -0.0520
     13 C          65.4566   92.3014   12.8050 C.ar    1  UNL1        0.0498
     14 C          65.2196   91.2352   13.8331 C.ar    1  UNL1        0.0126
     15 H          66.6834   95.8474   10.1621 H       1  UNL1        0.1442
     16 H          67.5402   95.8788   11.6361 H       1  UNL1        0.1442
     17 C          63.9733   86.5670   15.2703 C.3     1  UNL1        0.1166
     18 C          63.3610   82.2981   13.9851 C.ar    1  UNL1        0.0756
     19 C          64.6329   83.0119   13.6346 C.ar    1  UNL1        0.0062
     20 C          64.8370   84.4348   14.0630 C.ar    1  UNL1       -0.0024
     21 C          63.7692   85.1441   14.8419 C.ar    1  UNL1       -0.0026
     22 C          62.4973   84.4304   15.1924 C.ar    1  UNL1       -0.0024
     23 C          62.2932   83.0074   14.7640 C.ar    1  UNL1        0.0062
     24 C          63.1569   80.8752   13.5567 C.2     1  UNL1        0.3413
     25 O          63.4465   79.7555   14.5119 O.2     1  UNL1       -0.2449
     26 C          63.1117   81.4137   11.0155 C.3     1  UNL1        0.2560
     27 O          62.6632   80.5719   12.1732 O.3     1  UNL1       -0.4413
@<TRIPOS>BOND
     1    26    27    1
     2    27    24    1
     3    24    25    2
     4    24    18    1
     5    18    19   ar
     6    19    20   ar
     7    20    21   ar
     8    21    17    1
     9    17     1    1
    10     1     2   am
    11     2     3    2
    12     2     5    1
    13     5     6   ar
    14     6     7   ar
    15     7     8   ar
    16     8     9   ar
    17     9    10   ar
    18    10    11    1
    19    10    12   ar
    20    12    13   ar
    21    13    14   ar
    22    21    22   ar
    23    22    23   ar
    24    23    18   ar
    25    14     5   ar
    26    13     8   ar
    27     1     4    1
    28    11    15    1
    29    11    16    1
@<TRIPOS>MOLECULE
*****
 27 29 0 0 0
SMALL
GASTEIGER

@<TRIPOS>ATOM
      1 N          64.2381   88.3390   14.1025 N.am    1  UNL1       -0.2969
      2 C          63.8362   87.2422   15.0434 C.2     1  UNL1        0.2461
      3 O          63.4340   87.5710   16.4506 O.2     1  UNL1       -0.2701
      4 H          64.5021   88.1232   13.1789 H       1  UNL1        0.1501
      5 C          63.8365   85.8164   14.5772 C.ar    1  UNL1        0.0540
      6 C          64.1463   84.7115   15.5432 C.ar    1  UNL1        0.0061
      7 C          64.1466   83.2859   15.0769 C.ar    1  UNL1        0.0198
      8 C          63.8370   82.9651   13.6447 C.ar    1  UNL1        0.0892
      9 N          63.7629   81.6646   12.9008 N.ar    1  UNL1       -0.2245
     10 C          63.4072   81.9658   11.4750 C.ar    1  UNL1        0.1567
     11 N          63.2286   80.9575   10.3789 N.pl3   1  UNL1       -0.3375
     12 S          63.2615   83.4524   11.3378 S.2     1  UNL1       -0.0520
     13 C          63.5271   84.0700   12.6787 C.ar    1  UNL1        0.0498
     14 C          63.5269   85.4957   13.1450 C.ar    1  UNL1        0.0126
     15 H          63.3461   79.9985   10.5682 H       1  UNL1        0.1442
     16 H          62.9939   81.2547    9.4701 H       1  UNL1        0.1442
     17 C          64.2378   89.7648   14.5687 C.3     1  UNL1        0.1166
     18 C          65.7468   93.0203   11.8531 C.ar    1  UNL1        0.0756
     19 C          66.3771   92.8137   13.1985 C.ar    1  UNL1        0.0062
     20 C          65.8741   91.7285   14.1037 C.ar    1  UNL1       -0.0024
     21 C          64.7408   90.8499   13.6635 C.ar    1  UNL1       -0.0026
     22 C          64.1105   91.0565   12.3182 C.ar    1  UNL1       -0.0024
     23 C          64.6134   92.1418   11.4130 C.ar    1  UNL1        0.0062
     24 C          66.2497   94.1055   10.9479 C.2     1  UNL1        0.3413
     25 O          65.3803   95.2884   10.6402 O.2     1  UNL1       -0.2449
     26 C          67.9141   94.6597    9.0316 C.3     1  UNL1        0.2560
     27 O          67.6221   94.0077   10.3505 O.3     1  UNL1       -0.4413
@<TRIPOS>BOND
     1    26    27    1
     2    27    24    1
     3    24    25    2
     4    24    18    1
     5    18    19   ar
     6    19    20   ar
     7    20    21   ar
     8    21    17    1
     9    17     1    1
    10     1     2   am
    11     2     3    2
    12     2     5    1
    13     5     6   ar
    14     6     7   ar
    15     7     8   ar
    16     8     9   ar
    17     9    10   ar
    18    10    11    1
    19    10    12   ar
    20    12    13   ar
    21    13    14   ar
    22    21    22   ar
    23    22    23   ar
    24    23    18   ar
    25    14     5   ar
    26    13     8   ar
    27     1     4    1
    28    11    15    1
    29    11    16    1
@<TRIPOS>MOLECULE
*****
 27 29 0 0 0
SMALL
GASTEIGER

@<TRIPOS>ATOM
      1 N          63.5191   88.6259   13.2137 N.am    1  UNL1       -0.2969
      2 C          63.8087   87.3309   13.9129 C.2     1  UNL1        0.2461
      3 O          64.4696   87.3371   15.2595 O.2     1  UNL1       -0.2701
      4 H          63.0853   88.6218   12.3299 H       1  UNL1        0.1501
      5 C          63.4375   86.0296   13.2656 C.ar    1  UNL1        0.0540
      6 C          62.9221   86.0127   11.8571 C.ar    1  UNL1        0.0061
      7 C          62.5509   84.7115   11.2099 C.ar    1  UNL1        0.0198
      8 C          62.6953   83.4271   11.9712 C.ar    1  UNL1        0.0892
      9 N          62.4114   82.0021   11.5985 N.ar    1  UNL1       -0.2245
     10 C          62.7515   81.1383   12.7767 C.ar    1  UNL1        0.1567
     11 N          62.6205   79.6454   12.8426 N.pl3   1  UNL1       -0.3375
     12 S          63.2455   82.0294   13.8775 S.2     1  UNL1       -0.0520
     13 C          63.2107   83.4440   13.3797 C.ar    1  UNL1        0.0498
     14 C          63.5819   84.7452   14.0269 C.ar    1  UNL1        0.0126
     15 H          62.2845   79.1459   12.0636 H       1  UNL1        0.1442
     16 H          62.8706   79.1651   13.6648 H       1  UNL1        0.1442
     17 C          63.8902   89.9272   13.8610 C.3     1  UNL1        0.1166
     18 C          65.7388   93.2146   11.4062 C.ar    1  UNL1        0.0756
     19 C          66.2074   92.9731   12.8106 C.ar    1  UNL1        0.0062
     20 C          65.5912   91.8773   13.6288 C.ar    1  UNL1       -0.0024
     21 C          64.5064   91.0230   13.0428 C.ar    1  UNL1       -0.0026
     22 C          64.0379   91.2645   11.6385 C.ar    1  UNL1       -0.0024
     23 C          64.6541   92.3603   10.8202 C.ar    1  UNL1        0.0062
     24 C          66.3550   94.3104   10.5880 C.2     1  UNL1        0.3413
     25 O          67.7611   94.1706   10.0849 O.2     1  UNL1       -0.2449
     26 C          65.8097   96.8094   11.0436 C.3     1  UNL1        0.2560
     27 O          65.5650   95.5460   10.2730 O.3     1  UNL1       -0.4413
@<TRIPOS>BOND
     1    26    27    1
     2    27    24    1
     3    24    25    2
     4    24    18    1
     5    18    19   ar
     6    19    20   ar
     7    20    21   ar
     8    21    17    1
     9    17     1    1
    10     1     2   am
    11     2     3    2
    12     2     5    1
    13     5     6   ar
    14     6     7   ar
    15     7     8   ar
    16     8     9   ar
    17     9    10   ar
    18    10    11    1
    19    10    12   ar
    20    12    13   ar
    21    13    14   ar
    22    21    22   ar
    23    22    23   ar
    24    23    18   ar
    25    14     5   ar
    26    13     8   ar
    27     1     4    1
    28    11    15    1
    29    11    16    1
@<TRIPOS>MOLECULE
*****
 27 29 0 0 0
SMALL
GASTEIGER

@<TRIPOS>ATOM
      1 N          63.0668   88.8803   11.0420 N.am    1  UNL1       -0.2969
      2 C          63.0379   89.8346   12.1988 C.2     1  UNL1        0.2461
      3 O          62.0439   89.6419   13.3055 O.2     1  UNL1       -0.2701
      4 H          63.7193   89.0068   10.3157 H       1  UNL1        0.1501
      5 C          64.0031   90.9818   12.2491 C.ar    1  UNL1        0.0540
      6 C          64.7252   91.2991   13.5250 C.ar    1  UNL1        0.0061
      7 C          65.6903   92.4462   13.5752 C.ar    1  UNL1        0.0198
      8 C          65.9334   93.2760   12.3495 C.ar    1  UNL1        0.0892
      9 N          66.8201   94.4597   12.0984 N.ar    1  UNL1       -0.2245
     10 C          66.6459   94.8739   10.6673 C.ar    1  UNL1        0.1567
     11 N          67.3435   96.0153    9.9886 N.pl3   1  UNL1       -0.3375
     12 S          65.6517   93.9462   10.0339 S.2     1  UNL1       -0.0520
     13 C          65.2114   92.9587   11.0736 C.ar    1  UNL1        0.0498
     14 C          64.2462   91.8116   11.0234 C.ar    1  UNL1        0.0126
     15 H          67.9829   96.5702   10.4911 H       1  UNL1        0.1442
     16 H          67.1620   96.2095    9.0406 H       1  UNL1        0.1442
     17 C          62.1016   87.7331   10.9917 C.3     1  UNL1        0.1166
     18 C          63.1880   83.7943   12.8774 C.ar    1  UNL1        0.0756
     19 C          62.4680   83.8228   11.5617 C.ar    1  UNL1        0.0062
     20 C          62.1059   85.1357   10.9332 C.ar    1  UNL1       -0.0024
     21 C          62.4637   86.4202   11.6203 C.ar    1  UNL1       -0.0026
     22 C          63.1836   86.3918   12.9359 C.ar    1  UNL1       -0.0024
     23 C          63.5458   85.0788   13.5645 C.ar    1  UNL1        0.0062
     24 C          63.5501   82.4814   13.5059 C.2     1  UNL1        0.3413
     25 O          63.9625   82.4283   14.9471 O.2     1  UNL1       -0.2449
     26 C          62.5094   80.1481   13.0343 C.3     1  UNL1        0.2560
     27 O          63.4999   81.2216   12.6932 O.3     1  UNL1       -0.4413
@<TRIPOS>BOND
     1    26    27    1
     2    27    24    1
     3    24    25    2
     4    24    18    1
     5    18    19   ar
     6    19    20   ar
     7    20    21   ar
     8    21    17    1
     9    17     1    1
    10     1     2   am
    11     2     3    2
    12     2     5    1
    13     5     6   ar
    14     6     7   ar
    15     7     8   ar
    16     8     9   ar
    17     9    10   ar
    18    10    11    1
    19    10    12   ar
    20    12    13   ar
    21    13    14   ar
    22    21    22   ar
    23    22    23   ar
    24    23    18   ar
    25    14     5   ar
    26    13     8   ar
    27     1     4    1
    28    11    15    1
    29    11    16    1
