@<TRIPOS>MOLECULE
*****
 37 41 0 0 0
SMALL
GASTEIGER

@<TRIPOS>ATOM
      1 N          63.9536   90.2163   13.5075 N.3     1  UNL1       -0.2641
      2 C          64.7284   91.3899   12.9856 C.3     1  UNL1        0.0981
      3 C          64.5682   91.8192   11.5574 C.3     1  UNL1        0.0224
      4 C          65.3430   92.9928   11.0355 C.3     1  UNL1        0.0065
      5 C          66.2780   93.7371   11.9419 C.3     1  UNL1        0.0277
      6 C          66.4383   93.3078   13.3702 C.ar    1  UNL1       -0.0073
      7 C          67.3734   94.0522   14.2767 C.ar    1  UNL1       -0.0015
      8 C          67.5336   93.6229   15.7049 C.ar    1  UNL1        0.0203
      9 C          66.7588   92.4493   16.2268 C.ar    1  UNL1        0.0985
     10 N          65.8238   91.7049   15.3204 N.ar    1  UNL1       -0.2471
     11 C          65.6635   92.1342   13.8920 C.ar    1  UNL1        0.0695
     12 C          64.6704   89.0844   14.1818 C.3     1  UNL1        0.0989
     13 C          64.4281   86.6968   15.1772 C.2     1  UNL1       -0.0122
     14 C          63.9003   88.0894   14.9986 C.2     1  UNL1       -0.0120
     15 C          63.6580   85.7019   15.9940 C.3     1  UNL1        0.0950
     16 N          62.4592   85.0173   15.4073 N.3     1  UNL1       -0.2948
     17 H          61.9974   84.5253   16.1721 H       1  UNL1        0.1235
     18 C          62.8214   80.5722   11.8086 C.3     1  UNL1        0.0000
     19 C          62.9759   82.0407   12.0722 C.3     1  UNL1        0.0001
     20 C          63.3942   81.9891   10.6327 C.3     1  UNL1        0.0000
     21 C          63.2756   83.4913   11.8359 C.3     1  UNL1        0.0014
     22 C          63.1034   84.4836   12.9476 C.3     1  UNL1        0.0157
     23 C          62.6314   84.0252   14.2956 C.3     1  UNL1        0.0542
     24 C          62.3317   82.5745   14.5319 C.3     1  UNL1        0.0157
     25 C          62.5039   81.5823   13.4202 C.3     1  UNL1        0.0014
     26 C          62.4620   90.1746   13.3550 C.3     1  UNL1        0.0888
     27 C          61.8511   89.6038   12.1096 C.3     1  UNL1        0.0748
     28 C          62.3540   88.3039   11.5553 C.3     1  UNL1        0.0432
     29 C          61.7431   87.7330   10.3099 C.ar    1  UNL1       -0.0234
     30 C          62.2461   86.4331    9.7557 C.ar    1  UNL1       -0.0045
     31 C          61.6351   85.8623    8.5104 C.ar    1  UNL1       -0.0003
     32 C          60.5212   86.5914    7.8193 C.ar    1  UNL1       -0.0003
     33 C          60.0182   87.8913    8.3735 C.ar    1  UNL1       -0.0032
     34 C          60.6292   88.4621    9.6188 C.ar    1  UNL1       -0.0103
     35 C          60.1262   89.7621   10.1732 C.3     1  UNL1        0.0953
     36 N          60.7371   90.3329   11.4185 N.3     1  UNL1       -0.2934
     37 H          59.9830   90.4307   12.0982 H       1  UNL1        0.1236
@<TRIPOS>BOND
     1    18    19    1
     2    19    20    1
     3    19    21    1
     4    21    22    1
     5    22    23    1
     6    23    16    1
     7    16    15    1
     8    15    13    1
     9    13    14    2
    10    14    12    1
    11    12     1    1
    12     1    26    1
    13    27    26    1
    14    27    28    1
    15    28    29    1
    16    29    30   ar
    17    30    31   ar
    18    31    32   ar
    19    32    33   ar
    20    33    34   ar
    21    34    35    1
    22    35    36    1
    23     2     1    1
    24     2     3    1
    25     3     4    1
    26     4     5    1
    27     5     6    1
    28     6     7   ar
    29     7     8   ar
    30     8     9   ar
    31     9    10   ar
    32    10    11   ar
    33    23    24    1
    34    24    25    1
    35    25    19    1
    36    36    27    1
    37    11     2    1
    38    34    29   ar
    39    11     6   ar
    40    16    17    1
    41    36    37    1
@<TRIPOS>MOLECULE
*****
 37 41 0 0 0
SMALL
GASTEIGER

@<TRIPOS>ATOM
      1 N          63.6069   88.8353   13.9997 N.3     1  UNL1       -0.2641
      2 C          63.3684   89.5007   12.6767 C.3     1  UNL1        0.0981
      3 C          64.0402   90.8040   12.3607 C.3     1  UNL1        0.0224
      4 C          63.8016   91.4694   11.0377 C.3     1  UNL1        0.0065
      5 C          62.8912   90.8315   10.0307 C.3     1  UNL1        0.0277
      6 C          62.2194   89.5282   10.3467 C.ar    1  UNL1       -0.0073
      7 C          61.3089   88.8901    9.3397 C.ar    1  UNL1       -0.0015
      8 C          60.6371   87.5868    9.6556 C.ar    1  UNL1        0.0203
      9 C          60.8757   86.9214   10.9786 C.ar    1  UNL1        0.0985
     10 N          61.7861   87.5594   11.9857 N.ar    1  UNL1       -0.2471
     11 C          62.4580   88.8628   11.6697 C.ar    1  UNL1        0.0695
     12 C          62.9804   89.3927   15.2434 C.3     1  UNL1        0.0989
     13 C          64.8222   91.2209   15.3689 C.2     1  UNL1       -0.0122
     14 C          63.6460   90.5179   15.9790 C.2     1  UNL1       -0.0120
     15 C          65.4877   92.3460   16.1045 C.3     1  UNL1        0.0950
     16 N          66.6324   93.0816   15.4731 N.3     1  UNL1       -0.2948
     17 H          66.5078   94.0688   15.6976 H       1  UNL1        0.1235
     18 C          66.8874   93.5377    9.7662 C.3     1  UNL1        0.0000
     19 C          67.2889   92.8332   11.0282 C.3     1  UNL1        0.0001
     20 C          68.0256   92.0020   10.0202 C.3     1  UNL1        0.0000
     21 C          67.9462   91.8401   11.9400 C.3     1  UNL1        0.0014
     22 C          67.7274   91.9229   13.4217 C.3     1  UNL1        0.0157
     23 C          66.8513   92.9988   13.9915 C.3     1  UNL1        0.0542
     24 C          66.1939   93.9920   13.0796 C.3     1  UNL1        0.0157
     25 C          66.4127   93.9092   11.5979 C.3     1  UNL1        0.0014
     26 C          64.4720   87.6125   14.0791 C.3     1  UNL1        0.0888
     27 C          63.8441   86.2572   14.2174 C.3     1  UNL1        0.0748
     28 C          63.8081   85.3240   13.0437 C.3     1  UNL1        0.0432
     29 C          63.1802   83.9687   13.1820 C.ar    1  UNL1       -0.0234
     30 C          63.1442   83.0355   12.0083 C.ar    1  UNL1       -0.0045
     31 C          62.5163   81.6803   12.1467 C.ar    1  UNL1       -0.0003
     32 C          61.9245   81.2584   13.4588 C.ar    1  UNL1       -0.0003
     33 C          61.9605   82.1916   14.6326 C.ar    1  UNL1       -0.0032
     34 C          62.5884   83.5468   14.4942 C.ar    1  UNL1       -0.0103
     35 C          62.6244   84.4801   15.6679 C.3     1  UNL1        0.0953
     36 N          63.2523   85.8353   15.5296 N.3     1  UNL1       -0.2934
     37 H          64.0015   85.8846   16.2199 H       1  UNL1        0.1236
@<TRIPOS>BOND
     1    18    19    1
     2    19    20    1
     3    19    21    1
     4    21    22    1
     5    22    23    1
     6    23    16    1
     7    16    15    1
     8    15    13    1
     9    13    14    2
    10    14    12    1
    11    12     1    1
    12     1    26    1
    13    27    26    1
    14    27    28    1
    15    28    29    1
    16    29    30   ar
    17    30    31   ar
    18    31    32   ar
    19    32    33   ar
    20    33    34   ar
    21    34    35    1
    22    35    36    1
    23     2     1    1
    24     2     3    1
    25     3     4    1
    26     4     5    1
    27     5     6    1
    28     6     7   ar
    29     7     8   ar
    30     8     9   ar
    31     9    10   ar
    32    10    11   ar
    33    23    24    1
    34    24    25    1
    35    25    19    1
    36    36    27    1
    37    11     2    1
    38    34    29   ar
    39    11     6   ar
    40    16    17    1
    41    36    37    1
@<TRIPOS>MOLECULE
*****
 37 41 0 0 0
SMALL
GASTEIGER

@<TRIPOS>ATOM
      1 N          64.0611   90.1769   13.9203 N.3     1  UNL1       -0.2641
      2 C          64.9783   91.3570   14.0471 C.3     1  UNL1        0.0981
      3 C          65.5977   91.6865   15.3729 C.3     1  UNL1        0.0224
      4 C          66.5149   92.8666   15.4997 C.3     1  UNL1        0.0065
      5 C          66.8128   93.7172   14.3007 C.3     1  UNL1        0.0277
      6 C          66.1935   93.3877   12.9749 C.ar    1  UNL1       -0.0073
      7 C          66.4914   94.2383   11.7758 C.ar    1  UNL1       -0.0015
      8 C          65.8721   93.9089   10.4500 C.ar    1  UNL1        0.0203
      9 C          64.9548   92.7288   10.3232 C.ar    1  UNL1        0.0985
     10 N          64.6569   91.8782   11.5222 N.ar    1  UNL1       -0.2471
     11 C          65.2762   92.2076   12.8481 C.ar    1  UNL1        0.0695
     12 C          64.5934   88.7886   14.1179 C.3     1  UNL1        0.0989
     13 C          64.3308   86.4083   15.1255 C.2     1  UNL1       -0.0122
     14 C          63.8867   87.8384   15.0387 C.2     1  UNL1       -0.0120
     15 C          63.6241   85.4581   16.0462 C.3     1  UNL1        0.0950
     16 N          62.5414   84.5655   15.5160 N.3     1  UNL1       -0.2948
     17 H          62.3360   83.8853   16.2477 H       1  UNL1        0.1235
     18 C          62.9405   80.8732   11.1515 C.3     1  UNL1        0.0000
     19 C          63.2029   82.2346   11.7240 C.3     1  UNL1        0.0001
     20 C          63.8030   82.4056   10.3600 C.3     1  UNL1        0.0000
     21 C          63.6737   83.6553   11.8228 C.3     1  UNL1        0.0014
     22 C          63.4532   84.4324   13.0868 C.3     1  UNL1        0.0157
     23 C          62.7619   83.7886   14.2520 C.3     1  UNL1        0.0542
     24 C          62.2911   82.3678   14.1532 C.3     1  UNL1        0.0157
     25 C          62.5116   81.5908   12.8892 C.3     1  UNL1        0.0014
     26 C          62.6115   90.3852   13.5958 C.3     1  UNL1        0.0888
     27 C          62.0331   89.8040   12.3397 C.3     1  UNL1        0.0748
     28 C          62.5318   88.4869   11.8238 C.3     1  UNL1        0.0432
     29 C          61.9534   87.9057   10.5677 C.ar    1  UNL1       -0.0234
     30 C          62.4521   86.5885   10.0518 C.ar    1  UNL1       -0.0045
     31 C          61.8737   86.0074    8.7958 C.ar    1  UNL1       -0.0003
     32 C          60.7964   86.7435    8.0556 C.ar    1  UNL1       -0.0003
     33 C          60.2977   88.0607    8.5716 C.ar    1  UNL1       -0.0032
     34 C          60.8761   88.6418    9.8276 C.ar    1  UNL1       -0.0103
     35 C          60.3774   89.9590   10.3436 C.3     1  UNL1        0.0953
     36 N          60.9558   90.5401   11.5996 N.3     1  UNL1       -0.2934
     37 H          60.1810   90.6619   12.2517 H       1  UNL1        0.1236
@<TRIPOS>BOND
     1    18    19    1
     2    19    20    1
     3    19    21    1
     4    21    22    1
     5    22    23    1
     6    23    16    1
     7    16    15    1
     8    15    13    1
     9    13    14    2
    10    14    12    1
    11    12     1    1
    12     1    26    1
    13    27    26    1
    14    27    28    1
    15    28    29    1
    16    29    30   ar
    17    30    31   ar
    18    31    32   ar
    19    32    33   ar
    20    33    34   ar
    21    34    35    1
    22    35    36    1
    23     2     1    1
    24     2     3    1
    25     3     4    1
    26     4     5    1
    27     5     6    1
    28     6     7   ar
    29     7     8   ar
    30     8     9   ar
    31     9    10   ar
    32    10    11   ar
    33    23    24    1
    34    24    25    1
    35    25    19    1
    36    36    27    1
    37    11     2    1
    38    34    29   ar
    39    11     6   ar
    40    16    17    1
    41    36    37    1
@<TRIPOS>MOLECULE
*****
 37 41 0 0 0
SMALL
GASTEIGER

@<TRIPOS>ATOM
      1 N          63.7374   89.8495   13.7273 N.3     1  UNL1       -0.2641
      2 C          64.4419   90.9863   13.0480 C.3     1  UNL1        0.0981
      3 C          64.2168   91.2426   11.5873 C.3     1  UNL1        0.0224
      4 C          64.9213   92.3794   10.9081 C.3     1  UNL1        0.0065
      5 C          65.8508   93.2599   11.6895 C.3     1  UNL1        0.0277
      6 C          66.0759   93.0036   13.1502 C.ar    1  UNL1       -0.0073
      7 C          67.0055   93.8841   13.9317 C.ar    1  UNL1       -0.0015
      8 C          67.2305   93.6278   15.3923 C.ar    1  UNL1        0.0203
      9 C          66.5260   92.4910   16.0716 C.ar    1  UNL1        0.0985
     10 N          65.5965   91.6105   15.2902 N.ar    1  UNL1       -0.2471
     11 C          65.3714   91.8668   13.8294 C.ar    1  UNL1        0.0695
     12 C          62.2419   89.7504   13.6667 C.3     1  UNL1        0.0989
     13 C          60.7437   90.3333   11.6257 C.2     1  UNL1       -0.0122
     14 C          61.5685   89.3409   12.3903 C.2     1  UNL1       -0.0120
     15 C          60.0703   89.9238   10.3494 C.3     1  UNL1        0.0950
     16 N          59.5251   88.5341   10.2015 N.3     1  UNL1       -0.2948
     17 H          59.4374   88.1505   11.1425 H       1  UNL1        0.1235
     18 C          63.0975   84.8042    7.7182 C.3     1  UNL1        0.0000
     19 C          61.7628   85.4874    7.7601 C.3     1  UNL1        0.0001
     20 C          61.5709   84.6148    6.5553 C.3     1  UNL1        0.0000
     21 C          60.3615   85.8676    7.3837 C.3     1  UNL1        0.0014
     22 C          59.6155   86.8832    8.1975 C.3     1  UNL1        0.0157
     23 C          60.2710   87.5186    9.3877 C.3     1  UNL1        0.0542
     24 C          61.6724   87.1384    9.7641 C.3     1  UNL1        0.0157
     25 C          62.4182   86.1228    8.9503 C.3     1  UNL1        0.0014
     26 C          64.5284   88.8118   14.4671 C.3     1  UNL1        0.0888
     27 C          64.0276   87.3998   14.5426 C.3     1  UNL1        0.0748
     28 C          63.8507   86.5986   13.2870 C.3     1  UNL1        0.0432
     29 C          63.3499   85.1866   13.3625 C.ar    1  UNL1       -0.0234
     30 C          63.1730   84.3855   12.1068 C.ar    1  UNL1       -0.0045
     31 C          62.6723   82.9736   12.1823 C.ar    1  UNL1       -0.0003
     32 C          62.3485   82.3628   13.5136 C.ar    1  UNL1       -0.0003
     33 C          62.5255   83.1640   14.7692 C.ar    1  UNL1       -0.0032
     34 C          63.0262   84.5759   14.6937 C.ar    1  UNL1       -0.0103
     35 C          63.2032   85.3771   15.9494 C.3     1  UNL1        0.0953
     36 N          63.7039   86.7890   15.8739 N.3     1  UNL1       -0.2934
     37 H          64.5570   86.8291   16.4315 H       1  UNL1        0.1236
@<TRIPOS>BOND
     1    18    19    1
     2    19    20    1
     3    19    21    1
     4    21    22    1
     5    22    23    1
     6    23    16    1
     7    16    15    1
     8    15    13    1
     9    13    14    2
    10    14    12    1
    11    12     1    1
    12     1    26    1
    13    27    26    1
    14    27    28    1
    15    28    29    1
    16    29    30   ar
    17    30    31   ar
    18    31    32   ar
    19    32    33   ar
    20    33    34   ar
    21    34    35    1
    22    35    36    1
    23     2     1    1
    24     2     3    1
    25     3     4    1
    26     4     5    1
    27     5     6    1
    28     6     7   ar
    29     7     8   ar
    30     8     9   ar
    31     9    10   ar
    32    10    11   ar
    33    23    24    1
    34    24    25    1
    35    25    19    1
    36    36    27    1
    37    11     2    1
    38    34    29   ar
    39    11     6   ar
    40    16    17    1
    41    36    37    1
@<TRIPOS>MOLECULE
*****
 37 41 0 0 0
SMALL
GASTEIGER

@<TRIPOS>ATOM
      1 N          64.3497   90.3054   14.3537 N.3     1  UNL1       -0.2641
      2 C          65.2576   91.4994   14.3657 C.3     1  UNL1        0.0981
      3 C          65.9746   91.8837   15.6259 C.3     1  UNL1        0.0224
      4 C          66.8825   93.0777   15.6379 C.3     1  UNL1        0.0065
      5 C          67.0732   93.8874   14.3897 C.3     1  UNL1        0.0277
      6 C          66.3562   93.5031   13.1296 C.ar    1  UNL1       -0.0073
      7 C          66.5469   94.3128   11.8813 C.ar    1  UNL1       -0.0015
      8 C          65.8299   93.9285   10.6211 C.ar    1  UNL1        0.0203
      9 C          64.9220   92.7345   10.6091 C.ar    1  UNL1        0.0985
     10 N          64.7313   91.9248   11.8573 N.ar    1  UNL1       -0.2471
     11 C          65.4483   92.3091   13.1176 C.ar    1  UNL1        0.0695
     12 C          63.8303   89.7712   13.0519 C.3     1  UNL1        0.0989
     13 C          61.5860   89.8927   11.7485 C.2     1  UNL1       -0.0122
     14 C          62.3837   89.3974   12.9182 C.2     1  UNL1       -0.0120
     15 C          60.1396   89.5189   11.6149 C.3     1  UNL1        0.0950
     16 N          59.7513   88.0843   11.4120 N.3     1  UNL1       -0.2948
     17 H          59.5849   87.6904   12.3380 H       1  UNL1        0.1235
     18 C          63.0071   84.9367    7.9001 C.3     1  UNL1        0.0000
     19 C          62.5521   85.2739    9.2890 C.3     1  UNL1        0.0001
     20 C          63.5274   84.1758    9.5938 C.3     1  UNL1        0.0000
     21 C          62.4358   85.2297   10.7838 C.3     1  UNL1        0.0014
     22 C          61.5022   86.1665   11.4915 C.3     1  UNL1        0.0157
     23 C          60.6849   87.1475   10.7043 C.3     1  UNL1        0.0542
     24 C          60.8012   87.1916    9.2095 C.3     1  UNL1        0.0157
     25 C          61.7348   86.2549    8.5018 C.3     1  UNL1        0.0014
     26 C          63.9613   89.6455   15.6435 C.3     1  UNL1        0.0888
     27 C          63.7231   88.1651   15.6867 C.3     1  UNL1        0.0748
     28 C          64.3304   87.2770   14.6415 C.3     1  UNL1        0.0432
     29 C          64.0922   85.7966   14.6847 C.ar    1  UNL1       -0.0234
     30 C          64.6995   84.9085   13.6395 C.ar    1  UNL1       -0.0045
     31 C          64.4613   83.4282   13.6827 C.ar    1  UNL1       -0.0003
     32 C          63.6158   82.8360   14.7711 C.ar    1  UNL1       -0.0003
     33 C          63.0086   83.7241   15.8162 C.ar    1  UNL1       -0.0032
     34 C          63.2468   85.2044   15.7730 C.ar    1  UNL1       -0.0103
     35 C          62.6395   86.0926   16.8182 C.3     1  UNL1        0.0953
     36 N          62.8777   87.5729   16.7750 N.3     1  UNL1       -0.2934
     37 H          63.3170   87.8264   17.6600 H       1  UNL1        0.1236
@<TRIPOS>BOND
     1    18    19    1
     2    19    20    1
     3    19    21    1
     4    21    22    1
     5    22    23    1
     6    23    16    1
     7    16    15    1
     8    15    13    1
     9    13    14    2
    10    14    12    1
    11    12     1    1
    12     1    26    1
    13    27    26    1
    14    27    28    1
    15    28    29    1
    16    29    30   ar
    17    30    31   ar
    18    31    32   ar
    19    32    33   ar
    20    33    34   ar
    21    34    35    1
    22    35    36    1
    23     2     1    1
    24     2     3    1
    25     3     4    1
    26     4     5    1
    27     5     6    1
    28     6     7   ar
    29     7     8   ar
    30     8     9   ar
    31     9    10   ar
    32    10    11   ar
    33    23    24    1
    34    24    25    1
    35    25    19    1
    36    36    27    1
    37    11     2    1
    38    34    29   ar
    39    11     6   ar
    40    16    17    1
    41    36    37    1
@<TRIPOS>MOLECULE
*****
 37 41 0 0 0
SMALL
GASTEIGER

@<TRIPOS>ATOM
      1 N          63.5060   89.0278   13.5386 N.3     1  UNL1       -0.2641
      2 C          62.9914   89.2672   12.1501 C.3     1  UNL1        0.0981
      3 C          63.0520   90.6425   11.5544 C.3     1  UNL1        0.0224
      4 C          62.5373   90.8818   10.1659 C.3     1  UNL1        0.0065
      5 C          61.9622   89.7458    9.3731 C.3     1  UNL1        0.0277
      6 C          61.9016   88.3705    9.9687 C.ar    1  UNL1       -0.0073
      7 C          61.3263   87.2344    9.1759 C.ar    1  UNL1       -0.0015
      8 C          61.2658   85.8591    9.7715 C.ar    1  UNL1        0.0203
      9 C          61.7804   85.6198   11.1600 C.ar    1  UNL1        0.0985
     10 N          62.3556   86.7558   11.9529 N.ar    1  UNL1       -0.2471
     11 C          62.4162   88.1312   11.3572 C.ar    1  UNL1        0.0695
     12 C          64.2344   87.7565   13.8597 C.3     1  UNL1        0.0989
     13 C          64.1979   85.4122   14.9791 C.2     1  UNL1       -0.0122
     14 C          63.6878   86.8204   14.8965 C.2     1  UNL1       -0.0120
     15 C          63.6513   84.4761   16.0159 C.3     1  UNL1        0.0950
     16 N          63.0986   83.1432   15.6061 N.3     1  UNL1       -0.2948
     17 H          63.5648   82.4417   16.1814 H       1  UNL1        0.1235
     18 C          64.1379   82.1684   10.0553 C.3     1  UNL1        0.0000
     19 C          63.4639   81.7725   11.3355 C.3     1  UNL1        0.0001
     20 C          62.9766   80.6765   10.4349 C.3     1  UNL1        0.0000
     21 C          62.6207   80.9959   12.3029 C.3     1  UNL1        0.0014
     22 C          62.4989   81.4528   13.7265 C.3     1  UNL1        0.0157
     23 C          63.2204   82.6863   14.1826 C.3     1  UNL1        0.0542
     24 C          64.0637   83.4628   13.2151 C.3     1  UNL1        0.0157
     25 C          64.1854   83.0059   11.7917 C.3     1  UNL1        0.0014
     26 C          63.2922   90.0598   14.6059 C.3     1  UNL1        0.0888
     27 C          64.4328   90.9270   15.0499 C.3     1  UNL1        0.0748
     28 C          65.7225   90.9202   14.2841 C.3     1  UNL1        0.0432
     29 C          66.8631   91.7874   14.7281 C.ar    1  UNL1       -0.0234
     30 C          68.1528   91.7806   13.9622 C.ar    1  UNL1       -0.0045
     31 C          69.2933   92.6477   14.4063 C.ar    1  UNL1       -0.0003
     32 C          69.1441   93.5217   15.6162 C.ar    1  UNL1       -0.0003
     33 C          67.8544   93.5285   16.3821 C.ar    1  UNL1       -0.0032
     34 C          66.7139   92.6613   15.9381 C.ar    1  UNL1       -0.0103
     35 C          65.4241   92.6681   16.7039 C.3     1  UNL1        0.0953
     36 N          64.2836   91.8010   16.2599 N.3     1  UNL1       -0.2934
     37 H          63.4947   92.4218   16.0792 H       1  UNL1        0.1236
@<TRIPOS>BOND
     1    18    19    1
     2    19    20    1
     3    19    21    1
     4    21    22    1
     5    22    23    1
     6    23    16    1
     7    16    15    1
     8    15    13    1
     9    13    14    2
    10    14    12    1
    11    12     1    1
    12     1    26    1
    13    27    26    1
    14    27    28    1
    15    28    29    1
    16    29    30   ar
    17    30    31   ar
    18    31    32   ar
    19    32    33   ar
    20    33    34   ar
    21    34    35    1
    22    35    36    1
    23     2     1    1
    24     2     3    1
    25     3     4    1
    26     4     5    1
    27     5     6    1
    28     6     7   ar
    29     7     8   ar
    30     8     9   ar
    31     9    10   ar
    32    10    11   ar
    33    23    24    1
    34    24    25    1
    35    25    19    1
    36    36    27    1
    37    11     2    1
    38    34    29   ar
    39    11     6   ar
    40    16    17    1
    41    36    37    1
@<TRIPOS>MOLECULE
*****
 37 41 0 0 0
SMALL
GASTEIGER

@<TRIPOS>ATOM
      1 N          64.2028   90.3735   13.9744 N.3     1  UNL1       -0.2641
      2 C          63.5345   90.2281   12.6394 C.3     1  UNL1        0.0981
      3 C          63.2603   91.4418   11.8018 C.3     1  UNL1        0.0224
      4 C          62.5921   91.2964   10.4667 C.3     1  UNL1        0.0065
      5 C          62.1980   89.9373    9.9693 C.3     1  UNL1        0.0277
      6 C          62.4721   88.7236   10.8070 C.ar    1  UNL1       -0.0073
      7 C          62.0780   87.3644   10.3096 C.ar    1  UNL1       -0.0015
      8 C          62.3522   86.1507   11.1473 C.ar    1  UNL1        0.0203
      9 C          63.0205   86.2961   12.4823 C.ar    1  UNL1        0.0985
     10 N          63.4146   87.6552   12.9797 N.ar    1  UNL1       -0.2471
     11 C          63.1404   88.8690   12.1420 C.ar    1  UNL1        0.0695
     12 C          63.5281   89.8579   15.2109 C.3     1  UNL1        0.0989
     13 C          62.8637   87.7902   16.6368 C.2     1  UNL1       -0.0122
     14 C          63.8179   88.4698   15.7001 C.2     1  UNL1       -0.0120
     15 C          63.1535   86.4022   17.1260 C.3     1  UNL1        0.0950
     16 N          64.2207   85.5814   16.4645 N.3     1  UNL1       -0.2948
     17 H          64.8381   86.2346   15.9823 H       1  UNL1        0.1235
     18 C          63.6557   81.7156   12.2719 C.3     1  UNL1        0.0000
     19 C          63.0932   82.4123   13.4753 C.3     1  UNL1        0.0001
     20 C          61.9548   81.4905   13.1522 C.3     1  UNL1        0.0000
     21 C          62.1353   82.7888   14.5665 C.3     1  UNL1        0.0014
     22 C          62.5111   83.8452   15.5629 C.3     1  UNL1        0.0157
     23 C          63.8448   84.5250   15.4681 C.3     1  UNL1        0.0542
     24 C          64.8027   84.1485   14.3769 C.3     1  UNL1        0.0157
     25 C          64.4269   83.0921   13.3805 C.3     1  UNL1        0.0014
     26 C          65.5457   91.0344   14.0729 C.3     1  UNL1        0.0888
     27 C          65.9491   92.0675   13.0628 C.3     1  UNL1        0.0748
     28 C          66.7397   91.6651   11.8533 C.3     1  UNL1        0.0432
     29 C          67.1431   92.6981   10.8432 C.ar    1  UNL1       -0.0234
     30 C          67.9337   92.2957    9.6337 C.ar    1  UNL1       -0.0045
     31 C          68.3371   93.3287    8.6236 C.ar    1  UNL1       -0.0003
     32 C          67.9499   94.7641    8.8232 C.ar    1  UNL1       -0.0003
     33 C          67.1593   95.1664   10.0327 C.ar    1  UNL1       -0.0032
     34 C          66.7559   94.1334   11.0427 C.ar    1  UNL1       -0.0103
     35 C          65.9653   94.5358   12.2523 C.3     1  UNL1        0.0953
     36 N          65.5619   93.5028   13.2623 N.3     1  UNL1       -0.2934
     37 H          64.5437   93.5280   13.3188 H       1  UNL1        0.1236
@<TRIPOS>BOND
     1    18    19    1
     2    19    20    1
     3    19    21    1
     4    21    22    1
     5    22    23    1
     6    23    16    1
     7    16    15    1
     8    15    13    1
     9    13    14    2
    10    14    12    1
    11    12     1    1
    12     1    26    1
    13    27    26    1
    14    27    28    1
    15    28    29    1
    16    29    30   ar
    17    30    31   ar
    18    31    32   ar
    19    32    33   ar
    20    33    34   ar
    21    34    35    1
    22    35    36    1
    23     2     1    1
    24     2     3    1
    25     3     4    1
    26     4     5    1
    27     5     6    1
    28     6     7   ar
    29     7     8   ar
    30     8     9   ar
    31     9    10   ar
    32    10    11   ar
    33    23    24    1
    34    24    25    1
    35    25    19    1
    36    36    27    1
    37    11     2    1
    38    34    29   ar
    39    11     6   ar
    40    16    17    1
    41    36    37    1
@<TRIPOS>MOLECULE
*****
 37 41 0 0 0
SMALL
GASTEIGER

@<TRIPOS>ATOM
      1 N          61.8908   88.0297   11.0303 N.3     1  UNL1       -0.2641
      2 C          61.0149   87.6258    9.8816 C.3     1  UNL1        0.0981
      3 C          59.6700   88.2655    9.7028 C.3     1  UNL1        0.0224
      4 C          58.7941   87.8615    8.5541 C.3     1  UNL1        0.0065
      5 C          59.2630   86.8178    7.5842 C.3     1  UNL1        0.0277
      6 C          60.6079   86.1781    7.7630 C.ar    1  UNL1       -0.0073
      7 C          61.0769   85.1344    6.7931 C.ar    1  UNL1       -0.0015
      8 C          62.4217   84.4946    6.9718 C.ar    1  UNL1        0.0203
      9 C          63.2977   84.8986    8.1206 C.ar    1  UNL1        0.0985
     10 N          62.8288   85.9423    9.0905 N.ar    1  UNL1       -0.2471
     11 C          61.4838   86.5821    8.9117 C.ar    1  UNL1        0.0695
     12 C          62.9768   87.1103   11.5049 C.3     1  UNL1        0.0989
     13 C          64.1437   87.0468   13.8253 C.2     1  UNL1       -0.0122
     14 C          63.0028   86.6549   12.9339 C.2     1  UNL1       -0.0120
     15 C          64.1696   86.5914   15.2542 C.3     1  UNL1        0.0950
     16 N          64.5927   85.1914   15.5877 N.3     1  UNL1       -0.2948
     17 H          65.5923   85.1318   15.3937 H       1  UNL1        0.1235
     18 C          62.8888   80.7819   12.3482 C.3     1  UNL1        0.0000
     19 C          62.6560   81.7006   13.5109 C.3     1  UNL1        0.0001
     20 C          61.4342   80.8365   13.6130 C.3     1  UNL1        0.0000
     21 C          61.9989   82.3191   14.7091 C.3     1  UNL1        0.0014
     22 C          62.6444   83.4828   15.4014 C.3     1  UNL1        0.0157
     23 C          63.9471   84.0278   14.8955 C.3     1  UNL1        0.0542
     24 C          64.6043   83.4092   13.6973 C.3     1  UNL1        0.0157
     25 C          63.9587   82.2456   13.0051 C.3     1  UNL1        0.0014
     26 C          61.6808   89.3531   11.7045 C.3     1  UNL1        0.0888
     27 C          62.8424   90.2769   11.9218 C.3     1  UNL1        0.0748
     28 C          63.4654   90.3914   13.2815 C.3     1  UNL1        0.0432
     29 C          64.6271   91.3152   13.4988 C.ar    1  UNL1       -0.0234
     30 C          65.2501   91.4298   14.8585 C.ar    1  UNL1       -0.0045
     31 C          66.4117   92.3536   15.0758 C.ar    1  UNL1       -0.0003
     32 C          66.9503   93.1628   13.9334 C.ar    1  UNL1       -0.0003
     33 C          66.3273   93.0482   12.5737 C.ar    1  UNL1       -0.0032
     34 C          65.1657   92.1245   12.3564 C.ar    1  UNL1       -0.0103
     35 C          64.5427   92.0099   10.9967 C.3     1  UNL1        0.0953
     36 N          63.3811   91.0861   10.7794 N.3     1  UNL1       -0.2934
     37 H          63.6627   90.4239   10.0565 H       1  UNL1        0.1236
@<TRIPOS>BOND
     1    18    19    1
     2    19    20    1
     3    19    21    1
     4    21    22    1
     5    22    23    1
     6    23    16    1
     7    16    15    1
     8    15    13    1
     9    13    14    2
    10    14    12    1
    11    12     1    1
    12     1    26    1
    13    27    26    1
    14    27    28    1
    15    28    29    1
    16    29    30   ar
    17    30    31   ar
    18    31    32   ar
    19    32    33   ar
    20    33    34   ar
    21    34    35    1
    22    35    36    1
    23     2     1    1
    24     2     3    1
    25     3     4    1
    26     4     5    1
    27     5     6    1
    28     6     7   ar
    29     7     8   ar
    30     8     9   ar
    31     9    10   ar
    32    10    11   ar
    33    23    24    1
    34    24    25    1
    35    25    19    1
    36    36    27    1
    37    11     2    1
    38    34    29   ar
    39    11     6   ar
    40    16    17    1
    41    36    37    1
@<TRIPOS>MOLECULE
*****
 37 41 0 0 0
SMALL
GASTEIGER

@<TRIPOS>ATOM
      1 N          62.9929   89.7697   13.1228 N.3     1  UNL1       -0.2641
      2 C          63.9372   90.7130   13.8073 C.3     1  UNL1        0.0981
      3 C          64.0917   90.6688   15.2986 C.3     1  UNL1        0.0224
      4 C          65.0360   91.6121   15.9831 C.3     1  UNL1        0.0065
      5 C          65.8258   92.5996   15.1762 C.3     1  UNL1        0.0277
      6 C          65.6712   92.6438   13.6849 C.ar    1  UNL1       -0.0073
      7 C          66.4611   93.6313   12.8780 C.ar    1  UNL1       -0.0015
      8 C          66.3065   93.6755   11.3866 C.ar    1  UNL1        0.0203
      9 C          65.3623   92.7322   10.7021 C.ar    1  UNL1        0.0985
     10 N          64.5725   91.7447   11.5090 N.ar    1  UNL1       -0.2471
     11 C          64.7270   91.7005   13.0004 C.ar    1  UNL1        0.0695
     12 C          61.5139   90.0112   13.1868 C.3     1  UNL1        0.0989
     13 C          60.7002   90.2628   10.7323 C.2     1  UNL1       -0.0122
     14 C          60.6316   89.5655   12.0585 C.2     1  UNL1       -0.0120
     15 C          59.8180   89.8171    9.6041 C.3     1  UNL1        0.0950
     16 N          59.3324   88.3989    9.5468 N.3     1  UNL1       -0.2948
     17 H          59.2194   88.0873   10.5115 H       1  UNL1        0.1235
     18 C          63.1432   84.6308    7.5170 C.3     1  UNL1        0.0000
     19 C          61.7851   85.2639    7.4479 C.3     1  UNL1        0.0001
     20 C          61.6796   84.2960    6.3069 C.3     1  UNL1        0.0000
     21 C          60.3904   85.5608    6.9825 C.3     1  UNL1        0.0014
     22 C          59.5728   86.6059    7.6822 C.3     1  UNL1        0.0157
     23 C          60.1500   87.3539    8.8472 C.3     1  UNL1        0.0542
     24 C          61.5447   87.0570    9.3126 C.3     1  UNL1        0.0157
     25 C          62.3623   86.0120    8.6129 C.3     1  UNL1        0.0014
     26 C          63.5276   88.5849   12.3743 C.3     1  UNL1        0.0888
     27 C          63.5127   87.2266   13.0106 C.3     1  UNL1        0.0748
     28 C          63.0310   86.0387   12.2317 C.3     1  UNL1        0.0432
     29 C          63.0161   84.6804   12.8680 C.ar    1  UNL1       -0.0234
     30 C          62.5345   83.4925   12.0890 C.ar    1  UNL1       -0.0045
     31 C          62.5196   82.1343   12.7254 C.ar    1  UNL1       -0.0003
     32 C          62.9864   81.9640   14.1407 C.ar    1  UNL1       -0.0003
     33 C          63.4680   83.1519   14.9197 C.ar    1  UNL1       -0.0032
     34 C          63.4829   84.5101   14.2833 C.ar    1  UNL1       -0.0103
     35 C          63.9646   85.6981   15.0623 C.3     1  UNL1        0.0953
     36 N          63.9795   87.0563   14.4259 N.3     1  UNL1       -0.2934
     37 H          64.9439   87.3868   14.4597 H       1  UNL1        0.1236
@<TRIPOS>BOND
     1    18    19    1
     2    19    20    1
     3    19    21    1
     4    21    22    1
     5    22    23    1
     6    23    16    1
     7    16    15    1
     8    15    13    1
     9    13    14    2
    10    14    12    1
    11    12     1    1
    12     1    26    1
    13    27    26    1
    14    27    28    1
    15    28    29    1
    16    29    30   ar
    17    30    31   ar
    18    31    32   ar
    19    32    33   ar
    20    33    34   ar
    21    34    35    1
    22    35    36    1
    23     2     1    1
    24     2     3    1
    25     3     4    1
    26     4     5    1
    27     5     6    1
    28     6     7   ar
    29     7     8   ar
    30     8     9   ar
    31     9    10   ar
    32    10    11   ar
    33    23    24    1
    34    24    25    1
    35    25    19    1
    36    36    27    1
    37    11     2    1
    38    34    29   ar
    39    11     6   ar
    40    16    17    1
    41    36    37    1
