@<TRIPOS>MOLECULE
*****
 66 73 0 0 0
SMALL
GASTEIGER

@<TRIPOS>ATOM
      1 N          65.5717   89.1856   14.5538 N.3     1  UNL1       -0.1862
      2 C          65.8319   87.9361   15.3418 C.3     1  UNL1        0.1775
      3 C          65.0271   86.6991   15.0736 C.2     1  UNL1        0.2452
      4 O          65.2872   85.4495   15.8617 O.2     1  UNL1       -0.2732
      5 N          63.9621   86.7115   14.0174 N.am    1  UNL1       -0.2541
      6 C          63.1573   85.4744   13.7492 C.3     1  UNL1        0.1577
      7 C          62.0923   85.4868   12.6929 C.2     1  UNL1        0.2445
      8 O          61.2875   84.2498   12.4247 O.2     1  UNL1       -0.2731
      9 N          61.8321   86.7364   11.9048 N.am    1  UNL1       -0.2705
     10 C          62.6370   87.9735   12.1730 C.3     1  UNL1        0.1359
     11 C          63.7020   87.9610   13.2293 C.3     1  UNL1        0.1908
     12 N          64.5068   89.1981   13.4975 N.am    1  UNL1       -0.1863
     13 C          64.2466   90.4476   12.7094 C.2     1  UNL1        0.3191
     14 O          63.1816   90.4600   11.6532 O.2     1  UNL1       -0.2512
     15 N          65.0514   91.6847   12.9776 N.am    1  UNL1       -0.2836
     16 H          65.7504   91.6765   13.6709 H       1  UNL1        0.1513
     17 C          66.3766   90.4227   14.8220 C.3     1  UNL1        0.1188
     18 C          66.6504   92.7080   16.0271 C.2     1  UNL1       -0.0034
     19 C          65.8115   91.5129   15.6834 C.2     1  UNL1       -0.0071
     20 C          63.4174   84.2249   14.5372 C.3     1  UNL1        0.0556
     21 C          63.1868   82.8816   13.9109 C.ar    1  UNL1       -0.0198
     22 C          62.1267   81.9716   14.4567 C.ar    1  UNL1       -0.0011
     23 C          61.8961   80.6283   13.8304 C.ar    1  UNL1        0.0363
     24 C          62.7257   80.1949   12.6583 C.ar    1  UNL1        0.1337
     25 O          62.4951   78.8515   12.0320 O.3     1  UNL1       -0.5055
     26 C          63.7859   81.1048   12.1125 C.ar    1  UNL1        0.0363
     27 C          64.0165   82.4482   12.7387 C.ar    1  UNL1       -0.0011
     28 H          61.8328   78.2831   12.3730 H       1  UNL1        0.2922
     29 C          60.7672   86.7488   10.8486 C.3     1  UNL1        0.1217
     30 C          60.3729   88.0407   10.1962 C.ar    1  UNL1        0.0135
     31 C          60.0246   89.2312   11.0397 C.ar    1  UNL1       -0.0012
     32 C          59.6304   90.5231   10.3873 C.ar    1  UNL1       -0.0002
     33 C          59.5845   90.6245    8.8915 C.ar    1  UNL1        0.0015
     34 C          59.9327   89.4340    8.0480 C.ar    1  UNL1        0.0170
     35 C          59.9769   89.2352    6.5619 C.ar    1  UNL1        0.0186
     36 C          60.3985   87.8205    6.2958 C.ar    1  UNL1        0.0759
     37 N          60.6148   87.1450    7.6174 N.ar    1  UNL1       -0.3242
     38 C          61.0437   85.7220    7.8205 C.3     1  UNL1        0.1305
     39 C          60.3270   88.1421    8.7004 C.ar    1  UNL1        0.0575
     40 C          59.6559   90.2697    5.5241 C.ar    1  UNL1        0.0016
     41 C          58.2303   90.6633    5.2733 C.ar    1  UNL1        0.0013
     42 C          57.9094   91.6976    4.2355 C.ar    1  UNL1        0.0147
     43 C          59.0139   92.3384    3.4485 C.ar    1  UNL1        0.0516
     44 C          60.4395   91.9448    3.6992 C.ar    1  UNL1        0.0147
     45 C          60.7604   90.9104    4.7370 C.ar    1  UNL1        0.0013
     46 N          58.6929   93.3727    2.4107 N.am    1  UNL1       -0.2681
     47 C          59.4438   93.3908    1.1123 C.2     1  UNL1        0.3082
     48 O          60.5157   92.3744    0.8516 O.2     1  UNL1       -0.2521
     49 N          59.1227   94.4252    0.0745 N.am    1  UNL1       -0.2667
     50 H          57.9893   94.0398    2.5818 H       1  UNL1        0.1564
     51 H          58.4191   95.0923    0.2456 H       1  UNL1        0.1565
     52 C          59.8736   94.4432   -1.2238 C.ar    1  UNL1        0.0711
     53 C          59.2563   93.8499   -2.4555 C.ar    1  UNL1        0.0211
     54 C          60.0073   93.8679   -3.7539 C.ar    1  UNL1        0.0590
     55 C          61.3755   94.4792   -3.8206 C.ar    1  UNL1        0.2251
     56 N          61.9928   95.0725   -2.5889 N.ar    1  UNL1       -0.2088
     57 C          61.2418   95.0544   -1.2906 C.ar    1  UNL1        0.1167
     58 O          62.1264   94.4972   -5.1190 O.3     1  UNL1       -0.4561
     59 C          63.2689   93.5502   -5.3379 C.3     1  UNL1        0.2542
     60 C          64.7913   92.9342   12.1896 C.3     1  UNL1        0.1177
     61 C          65.8095   93.4245   11.2033 C.ar    1  UNL1       -0.0025
     62 C          66.7670   92.4584   10.5710 C.ar    1  UNL1       -0.0026
     63 C          67.7852   92.9487    9.5846 C.ar    1  UNL1       -0.0003
     64 C          67.8459   94.4051    9.2307 C.ar    1  UNL1       -0.0000
     65 C          66.8884   95.3712    9.8630 C.ar    1  UNL1       -0.0003
     66 C          65.8702   94.8809   10.8493 C.ar    1  UNL1       -0.0026
@<TRIPOS>BOND
     1    18    19    2
     2    19    17    1
     3    17     1    1
     4     1     2    1
     5     2     3    1
     6     3     4    2
     7     3     5   am
     8     5     6    1
     9     6    20    1
    10    20    21    1
    11    21    22   ar
    12    22    23   ar
    13    23    24   ar
    14    24    25    1
    15    24    26   ar
    16    26    27   ar
    17     6     7    1
    18     7     8    2
    19     7     9   am
    20     9    29    1
    21    29    30    1
    22    30    31   ar
    23    31    32   ar
    24    32    33   ar
    25    33    34   ar
    26    34    35   ar
    27    35    40    1
    28    40    41   ar
    29    41    42   ar
    30    42    43   ar
    31    43    46    1
    32    46    47   am
    33    47    48    2
    34    47    49   am
    35    49    52    1
    36    52    53   ar
    37    53    54   ar
    38    54    55   ar
    39    55    58    1
    40    58    59    1
    41    55    56   ar
    42    56    57   ar
    43    43    44   ar
    44    44    45   ar
    45    35    36   ar
    46    36    37   ar
    47    37    38    1
    48    37    39   ar
    49     9    10    1
    50    11    10    1
    51    11    12    1
    52    12    13   am
    53    13    14    2
    54    13    15   am
    55    15    60    1
    56    60    61    1
    57    61    62   ar
    58    62    63   ar
    59    63    64   ar
    60    64    65   ar
    61    65    66   ar
    62    12     1    1
    63    66    61   ar
    64    11     5    1
    65    27    21   ar
    66    39    30   ar
    67    39    34   ar
    68    45    40   ar
    69    57    52   ar
    70    25    28    1
    71    46    50    1
    72    49    51    1
    73    15    16    1
@<TRIPOS>MOLECULE
*****
 66 73 0 0 0
SMALL
GASTEIGER

@<TRIPOS>ATOM
      1 N          65.6336   89.9279   13.8632 N.3     1  UNL1       -0.1862
      2 C          66.0741   88.7944   14.7413 C.3     1  UNL1        0.1775
      3 C          65.3025   87.5081   14.7492 C.2     1  UNL1        0.2452
      4 O          65.7431   86.3746   15.6273 O.2     1  UNL1       -0.2732
      5 N          64.0904   87.3553   13.8790 N.am    1  UNL1       -0.2541
      6 C          63.3187   86.0690   13.8869 C.3     1  UNL1        0.1577
      7 C          62.1066   85.9162   13.0167 C.2     1  UNL1        0.2445
      8 O          61.3349   84.6300   13.0246 O.2     1  UNL1       -0.2731
      9 N          61.6660   87.0498   12.1385 N.am    1  UNL1       -0.2705
     10 C          62.4376   88.3361   12.1306 C.3     1  UNL1        0.1359
     11 C          63.6498   88.4888   13.0009 C.3     1  UNL1        0.1908
     12 N          64.4214   89.7751   12.9930 N.am    1  UNL1       -0.1863
     13 C          63.9808   90.9086   12.1148 C.2     1  UNL1        0.3191
     14 O          62.7687   90.7558   11.2447 O.2     1  UNL1       -0.2512
     15 N          64.7525   92.1949   12.1069 N.am    1  UNL1       -0.2836
     16 H          65.5481   92.2952   12.6781 H       1  UNL1        0.1513
     17 C          66.4052   91.2142   13.8553 C.3     1  UNL1        0.1188
     18 C          67.5900   93.0670   15.2385 C.2     1  UNL1       -0.0034
     19 C          66.5115   92.0328   15.1077 C.2     1  UNL1       -0.0071
     20 C          63.7593   84.9356   14.7650 C.3     1  UNL1        0.0556
     21 C          63.4562   83.5202   14.3713 C.ar    1  UNL1       -0.0198
     22 C          62.2512   82.8268   14.9343 C.ar    1  UNL1       -0.0011
     23 C          61.9481   81.4115   14.5406 C.ar    1  UNL1        0.0363
     24 C          62.8500   80.6896   13.5838 C.ar    1  UNL1        0.1337
     25 O          62.5469   79.2743   13.1901 O.3     1  UNL1       -0.5055
     26 C          64.0550   81.3831   13.0207 C.ar    1  UNL1        0.0363
     27 C          64.3581   82.7984   13.4144 C.ar    1  UNL1       -0.0011
     28 H          61.7942   78.8411   13.5418 H       1  UNL1        0.2922
     29 C          60.4538   86.8970   11.2684 C.3     1  UNL1        0.1217
     30 C          60.5624   87.1077    9.7872 C.ar    1  UNL1        0.0135
     31 C          61.0374   85.9923    8.9038 C.ar    1  UNL1       -0.0012
     32 C          61.1461   86.2030    7.4227 C.ar    1  UNL1       -0.0002
     33 C          60.7797   87.5290    6.8249 C.ar    1  UNL1        0.0015
     34 C          60.3048   88.6444    7.7083 C.ar    1  UNL1        0.0170
     35 C          59.8764   90.0501    7.4074 C.ar    1  UNL1        0.0186
     36 C          59.5030   90.7082    8.7026 C.ar    1  UNL1        0.0759
     37 N          59.7006   89.7092    9.8039 N.ar    1  UNL1       -0.3242
     38 C          59.4472   89.9444   11.2635 C.3     1  UNL1        0.1305
     39 C          60.1961   88.4337    9.1894 C.ar    1  UNL1        0.0575
     40 C          59.8296   90.6861    6.0496 C.ar    1  UNL1        0.0016
     41 C          58.5371   91.2357    5.5230 C.ar    1  UNL1        0.0013
     42 C          58.4904   91.8716    4.1653 C.ar    1  UNL1        0.0147
     43 C          59.7361   91.9580    3.3343 C.ar    1  UNL1        0.0516
     44 C          61.0286   91.4083    3.8609 C.ar    1  UNL1        0.0147
     45 C          61.0753   90.7724    5.2186 C.ar    1  UNL1        0.0013
     46 N          59.6893   92.5939    1.9766 N.am    1  UNL1       -0.2681
     47 C          60.9111   93.2617    1.4185 C.2     1  UNL1        0.3082
     48 O          62.1797   93.2936    2.2183 O.2     1  UNL1       -0.2521
     49 N          60.8642   93.8976    0.0609 N.am    1  UNL1       -0.2667
     50 H          58.8567   92.5730    1.4517 H       1  UNL1        0.1564
     51 H          60.0316   93.8767   -0.4640 H       1  UNL1        0.1565
     52 C          62.0860   94.5654   -0.4971 C.ar    1  UNL1        0.0711
     53 C          62.7194   94.0426   -1.7522 C.ar    1  UNL1        0.0211
     54 C          63.9412   94.7104   -2.3101 C.ar    1  UNL1        0.0590
     55 C          64.5297   95.9011   -1.6128 C.ar    1  UNL1        0.2251
     56 N          63.8963   96.4239   -0.3577 N.ar    1  UNL1       -0.2088
     57 C          62.6744   95.7561    0.2002 C.ar    1  UNL1        0.1167
     58 O          65.7515   96.5689   -2.1708 O.3     1  UNL1       -0.4561
     59 C          65.8966   96.7499   -3.6527 C.3     1  UNL1        0.2542
     60 C          64.3119   93.3284   11.2289 C.3     1  UNL1        0.1177
     61 C          65.3312   94.1495   10.4962 C.ar    1  UNL1       -0.0025
     62 C          65.1387   95.6301   10.3523 C.ar    1  UNL1       -0.0026
     63 C          66.1580   96.4513    9.6196 C.ar    1  UNL1       -0.0003
     64 C          67.3699   95.7918    9.0310 C.ar    1  UNL1       -0.0000
     65 C          67.5625   94.3112    9.1750 C.ar    1  UNL1       -0.0003
     66 C          66.5431   93.4900    9.9076 C.ar    1  UNL1       -0.0026
@<TRIPOS>BOND
     1    18    19    2
     2    19    17    1
     3    17     1    1
     4     1     2    1
     5     2     3    1
     6     3     4    2
     7     3     5   am
     8     5     6    1
     9     6    20    1
    10    20    21    1
    11    21    22   ar
    12    22    23   ar
    13    23    24   ar
    14    24    25    1
    15    24    26   ar
    16    26    27   ar
    17     6     7    1
    18     7     8    2
    19     7     9   am
    20     9    29    1
    21    29    30    1
    22    30    31   ar
    23    31    32   ar
    24    32    33   ar
    25    33    34   ar
    26    34    35   ar
    27    35    40    1
    28    40    41   ar
    29    41    42   ar
    30    42    43   ar
    31    43    46    1
    32    46    47   am
    33    47    48    2
    34    47    49   am
    35    49    52    1
    36    52    53   ar
    37    53    54   ar
    38    54    55   ar
    39    55    58    1
    40    58    59    1
    41    55    56   ar
    42    56    57   ar
    43    43    44   ar
    44    44    45   ar
    45    35    36   ar
    46    36    37   ar
    47    37    38    1
    48    37    39   ar
    49     9    10    1
    50    11    10    1
    51    11    12    1
    52    12    13   am
    53    13    14    2
    54    13    15   am
    55    15    60    1
    56    60    61    1
    57    61    62   ar
    58    62    63   ar
    59    63    64   ar
    60    64    65   ar
    61    65    66   ar
    62    12     1    1
    63    66    61   ar
    64    11     5    1
    65    27    21   ar
    66    39    30   ar
    67    39    34   ar
    68    45    40   ar
    69    57    52   ar
    70    25    28    1
    71    46    50    1
    72    49    51    1
    73    15    16    1
@<TRIPOS>MOLECULE
*****
 66 73 0 0 0
SMALL
GASTEIGER

@<TRIPOS>ATOM
      1 N          64.5224   83.0567   13.3271 N.3     1  UNL1       -0.1862
      2 C          65.1425   83.9186   14.3866 C.3     1  UNL1        0.1775
      3 C          64.7403   85.3582   14.5126 C.2     1  UNL1        0.2452
      4 O          65.3604   86.2201   15.5722 O.2     1  UNL1       -0.2732
      5 N          63.7180   85.9358   13.5792 N.am    1  UNL1       -0.2541
      6 C          63.3158   87.3754   13.7053 C.3     1  UNL1        0.1577
      7 C          62.2935   87.9530   12.7719 C.2     1  UNL1        0.2445
      8 O          61.8913   89.3926   12.8980 O.2     1  UNL1       -0.2731
      9 N          61.6734   87.0911   11.7124 N.am    1  UNL1       -0.2705
     10 C          62.0756   85.6515   11.5863 C.3     1  UNL1        0.1359
     11 C          63.0979   85.0739   12.5198 C.3     1  UNL1        0.1908
     12 N          63.5001   83.6343   12.3937 N.am    1  UNL1       -0.1863
     13 C          62.8800   82.7724   11.3342 C.2     1  UNL1        0.3191
     14 O          61.8577   83.3500   10.4008 O.2     1  UNL1       -0.2512
     15 N          63.2822   81.3328   11.2081 N.am    1  UNL1       -0.2836
     16 H          63.9531   80.9537   11.8207 H       1  UNL1        0.1513
     17 C          64.9246   81.6171   13.2010 C.3     1  UNL1        0.1188
     18 C          62.7735   80.4097   14.0163 C.2     1  UNL1       -0.0034
     19 C          64.2637   80.5762   14.0552 C.2     1  UNL1       -0.0071
     20 C          63.9359   88.2373   14.7648 C.3     1  UNL1        0.0556
     21 C          64.4265   89.6125   14.4208 C.ar    1  UNL1       -0.0198
     22 C          64.4677   90.0576   12.9890 C.ar    1  UNL1       -0.0011
     23 C          64.9583   91.4328   12.6450 C.ar    1  UNL1        0.0363
     24 C          65.4076   92.3627   13.7327 C.ar    1  UNL1        0.1337
     25 O          65.8982   93.7378   13.3887 O.3     1  UNL1       -0.5055
     26 C          65.3663   91.9176   15.1646 C.ar    1  UNL1        0.0363
     27 C          64.8758   90.5424   15.5086 C.ar    1  UNL1       -0.0011
     28 H          65.9240   94.0159   12.4943 H       1  UNL1        0.2922
     29 C          60.6511   87.6687   10.7790 C.3     1  UNL1        0.1217
     30 C          61.0127   88.8231    9.8920 C.ar    1  UNL1        0.0135
     31 C          62.0403   89.8198   10.3399 C.ar    1  UNL1       -0.0012
     32 C          62.4019   90.9742    9.4530 C.ar    1  UNL1       -0.0002
     33 C          61.7360   91.1318    8.1183 C.ar    1  UNL1        0.0015
     34 C          60.7084   90.1351    7.6704 C.ar    1  UNL1        0.0170
     35 C          59.8903   90.0310    6.4175 C.ar    1  UNL1        0.0186
     36 C          59.0231   88.8124    6.5300 C.ar    1  UNL1        0.0759
     37 N          59.3052   88.1633    7.8525 N.ar    1  UNL1       -0.3242
     38 C          58.6591   86.9157    8.3779 C.3     1  UNL1        0.1305
     39 C          60.3468   88.9807    8.5573 C.ar    1  UNL1        0.0575
     40 C          59.9321   90.9793    5.2559 C.ar    1  UNL1        0.0016
     41 C          61.2322   91.2578    4.5615 C.ar    1  UNL1        0.0013
     42 C          61.2740   92.2060    3.4000 C.ar    1  UNL1        0.0147
     43 C          60.0157   92.8756    2.9328 C.ar    1  UNL1        0.0516
     44 C          58.7155   92.5971    3.6272 C.ar    1  UNL1        0.0147
     45 C          58.6738   91.6489    4.7887 C.ar    1  UNL1        0.0013
     46 N          60.0575   93.8238    1.7713 N.am    1  UNL1       -0.2681
     47 C          61.0545   93.6171    0.6698 C.2     1  UNL1        0.3082
     48 O          62.0097   92.4621    0.7299 O.2     1  UNL1       -0.2521
     49 N          61.0963   94.5653   -0.4917 N.am    1  UNL1       -0.2667
     50 H          59.4305   94.5818    1.7318 H       1  UNL1        0.1564
     51 H          60.4693   95.3233   -0.5312 H       1  UNL1        0.1565
     52 C          62.0933   94.3585   -1.5932 C.ar    1  UNL1        0.0711
     53 C          61.7251   93.5384   -2.7939 C.ar    1  UNL1        0.0211
     54 C          62.7221   93.3316   -3.8954 C.ar    1  UNL1        0.0590
     55 C          64.0875   93.9450   -3.7960 C.ar    1  UNL1        0.2251
     56 N          64.4557   94.7651   -2.5953 N.ar    1  UNL1       -0.2088
     57 C          63.4585   94.9719   -1.4939 C.ar    1  UNL1        0.1167
     58 O          65.0845   93.7382   -4.8975 O.3     1  UNL1       -0.4561
     59 C          65.3648   92.3550   -5.4055 C.3     1  UNL1        0.2542
     60 C          62.6621   80.4709   10.1486 C.3     1  UNL1        0.1177
     61 C          63.0827   79.0381   10.0062 C.ar    1  UNL1       -0.0025
     62 C          62.5176   77.9957   10.9249 C.ar    1  UNL1       -0.0026
     63 C          62.9382   76.5629   10.7826 C.ar    1  UNL1       -0.0003
     64 C          63.9239   76.1726    9.7215 C.ar    1  UNL1       -0.0000
     65 C          64.4890   77.2150    8.8027 C.ar    1  UNL1       -0.0003
     66 C          64.0684   78.6477    8.9451 C.ar    1  UNL1       -0.0026
@<TRIPOS>BOND
     1    18    19    2
     2    19    17    1
     3    17     1    1
     4     1     2    1
     5     2     3    1
     6     3     4    2
     7     3     5   am
     8     5     6    1
     9     6    20    1
    10    20    21    1
    11    21    22   ar
    12    22    23   ar
    13    23    24   ar
    14    24    25    1
    15    24    26   ar
    16    26    27   ar
    17     6     7    1
    18     7     8    2
    19     7     9   am
    20     9    29    1
    21    29    30    1
    22    30    31   ar
    23    31    32   ar
    24    32    33   ar
    25    33    34   ar
    26    34    35   ar
    27    35    40    1
    28    40    41   ar
    29    41    42   ar
    30    42    43   ar
    31    43    46    1
    32    46    47   am
    33    47    48    2
    34    47    49   am
    35    49    52    1
    36    52    53   ar
    37    53    54   ar
    38    54    55   ar
    39    55    58    1
    40    58    59    1
    41    55    56   ar
    42    56    57   ar
    43    43    44   ar
    44    44    45   ar
    45    35    36   ar
    46    36    37   ar
    47    37    38    1
    48    37    39   ar
    49     9    10    1
    50    11    10    1
    51    11    12    1
    52    12    13   am
    53    13    14    2
    54    13    15   am
    55    15    60    1
    56    60    61    1
    57    61    62   ar
    58    62    63   ar
    59    63    64   ar
    60    64    65   ar
    61    65    66   ar
    62    12     1    1
    63    66    61   ar
    64    11     5    1
    65    27    21   ar
    66    39    30   ar
    67    39    34   ar
    68    45    40   ar
    69    57    52   ar
    70    25    28    1
    71    46    50    1
    72    49    51    1
    73    15    16    1
@<TRIPOS>MOLECULE
*****
 66 73 0 0 0
SMALL
GASTEIGER

@<TRIPOS>ATOM
      1 N          64.4927   83.1516   13.3432 N.3     1  UNL1       -0.1862
      2 C          65.0641   84.0052   14.4363 C.3     1  UNL1        0.1775
      3 C          64.6369   85.4368   14.5709 C.2     1  UNL1        0.2452
      4 O          65.2084   86.2904   15.6640 O.2     1  UNL1       -0.2732
      5 N          63.6384   86.0148   13.6124 N.am    1  UNL1       -0.2541
      6 C          63.2112   87.4464   13.7470 C.3     1  UNL1        0.1577
      7 C          62.2127   88.0244   12.7886 C.2     1  UNL1        0.2445
      8 O          61.7855   89.4560   12.9232 O.2     1  UNL1       -0.2731
      9 N          61.6412   87.1708   11.6954 N.am    1  UNL1       -0.2705
     10 C          62.0683   85.7392   11.5608 C.3     1  UNL1        0.1359
     11 C          63.0669   85.1612   12.5194 C.3     1  UNL1        0.1908
     12 N          63.4941   83.7297   12.3848 N.am    1  UNL1       -0.1863
     13 C          62.9226   82.8761   11.2916 C.2     1  UNL1        0.3191
     14 O          61.9240   83.4541   10.3332 O.2     1  UNL1       -0.2512
     15 N          63.3497   81.4445   11.1570 N.am    1  UNL1       -0.2836
     16 H          64.0051   81.0651   11.7861 H       1  UNL1        0.1513
     17 C          64.9198   81.7201   13.2087 C.3     1  UNL1        0.1188
     18 C          62.7109   80.6583   14.0709 C.2     1  UNL1       -0.0034
     19 C          64.2082   80.6493   13.9813 C.2     1  UNL1       -0.0071
     20 C          63.7827   88.3000   14.8401 C.3     1  UNL1        0.0556
     21 C          64.3567   89.6476   14.5169 C.ar    1  UNL1       -0.0198
     22 C          64.8112   90.5539   15.6223 C.ar    1  UNL1       -0.0011
     23 C          65.3852   91.9015   15.2991 C.ar    1  UNL1        0.0363
     24 C          65.5048   92.3427   13.8705 C.ar    1  UNL1        0.1337
     25 O          66.0788   93.6903   13.5472 O.3     1  UNL1       -0.5055
     26 C          65.0503   91.4364   12.7650 C.ar    1  UNL1        0.0363
     27 C          64.4763   90.0888   13.0882 C.ar    1  UNL1       -0.0011
     28 H          66.3627   94.2565   14.2378 H       1  UNL1        0.2922
     29 C          60.6426   87.7488   10.7370 C.3     1  UNL1        0.1217
     30 C          61.0295   88.8969    9.8524 C.ar    1  UNL1        0.0135
     31 C          62.0416   89.8987   10.3236 C.ar    1  UNL1       -0.0012
     32 C          62.4286   91.0467    9.4391 C.ar    1  UNL1       -0.0002
     33 C          61.8034   91.1929    8.0835 C.ar    1  UNL1        0.0015
     34 C          60.7913   90.1911    7.6123 C.ar    1  UNL1        0.0170
     35 C          60.0118   90.0760    6.3359 C.ar    1  UNL1        0.0186
     36 C          59.1431   88.8569    6.4316 C.ar    1  UNL1        0.0759
     37 N          59.3857   88.2185    7.7670 N.ar    1  UNL1       -0.3242
     38 C          58.7257   86.9740    8.2823 C.3     1  UNL1        0.1305
     39 C          60.4043   89.0431    8.4968 C.ar    1  UNL1        0.0575
     40 C          60.0877   91.0152    5.1688 C.ar    1  UNL1        0.0016
     41 C          61.3776   91.1796    4.4210 C.ar    1  UNL1        0.0013
     42 C          61.4534   92.1188    3.2539 C.ar    1  UNL1        0.0147
     43 C          60.2394   92.8936    2.8346 C.ar    1  UNL1        0.0516
     44 C          58.9495   92.7292    3.5823 C.ar    1  UNL1        0.0147
     45 C          58.8737   91.7900    4.7494 C.ar    1  UNL1        0.0013
     46 N          60.3153   93.8328    1.6675 N.am    1  UNL1       -0.2681
     47 C          59.4480   93.6063    0.4648 C.2     1  UNL1        0.3082
     48 O          58.5047   92.4406    0.4292 O.2     1  UNL1       -0.2521
     49 N          59.5239   94.5455   -0.7023 N.am    1  UNL1       -0.2667
     50 H          60.9344   94.5979    1.6908 H       1  UNL1        0.1564
     51 H          60.1430   95.3106   -0.6790 H       1  UNL1        0.1565
     52 C          58.6566   94.3190   -1.9049 C.ar    1  UNL1        0.0711
     53 C          59.1595   93.4854   -3.0461 C.ar    1  UNL1        0.0211
     54 C          58.2921   93.2589   -4.2487 C.ar    1  UNL1        0.0590
     55 C          56.9217   93.8659   -4.3102 C.ar    1  UNL1        0.2251
     56 N          56.4188   94.6995   -3.1691 N.ar    1  UNL1       -0.2088
     57 C          57.2862   94.9260   -1.9664 C.ar    1  UNL1        0.1167
     58 O          56.0543   93.6394   -5.5128 O.3     1  UNL1       -0.4561
     59 C          55.7548   92.2422   -5.9691 C.3     1  UNL1        0.2542
     60 C          62.7783   80.5909   10.0640 C.3     1  UNL1        0.1177
     61 C          63.1054   79.1282   10.0060 C.ar    1  UNL1       -0.0025
     62 C          64.0256   78.6070    8.9423 C.ar    1  UNL1       -0.0026
     63 C          64.3527   77.1442    8.8843 C.ar    1  UNL1       -0.0003
     64 C          63.7596   76.2027    9.8901 C.ar    1  UNL1       -0.0000
     65 C          62.8394   76.7238   10.9539 C.ar    1  UNL1       -0.0003
     66 C          62.5123   78.1866   11.0119 C.ar    1  UNL1       -0.0026
@<TRIPOS>BOND
     1    18    19    2
     2    19    17    1
     3    17     1    1
     4     1     2    1
     5     2     3    1
     6     3     4    2
     7     3     5   am
     8     5     6    1
     9     6    20    1
    10    20    21    1
    11    21    22   ar
    12    22    23   ar
    13    23    24   ar
    14    24    25    1
    15    24    26   ar
    16    26    27   ar
    17     6     7    1
    18     7     8    2
    19     7     9   am
    20     9    29    1
    21    29    30    1
    22    30    31   ar
    23    31    32   ar
    24    32    33   ar
    25    33    34   ar
    26    34    35   ar
    27    35    40    1
    28    40    41   ar
    29    41    42   ar
    30    42    43   ar
    31    43    46    1
    32    46    47   am
    33    47    48    2
    34    47    49   am
    35    49    52    1
    36    52    53   ar
    37    53    54   ar
    38    54    55   ar
    39    55    58    1
    40    58    59    1
    41    55    56   ar
    42    56    57   ar
    43    43    44   ar
    44    44    45   ar
    45    35    36   ar
    46    36    37   ar
    47    37    38    1
    48    37    39   ar
    49     9    10    1
    50    11    10    1
    51    11    12    1
    52    12    13   am
    53    13    14    2
    54    13    15   am
    55    15    60    1
    56    60    61    1
    57    61    62   ar
    58    62    63   ar
    59    63    64   ar
    60    64    65   ar
    61    65    66   ar
    62    12     1    1
    63    66    61   ar
    64    11     5    1
    65    27    21   ar
    66    39    30   ar
    67    39    34   ar
    68    45    40   ar
    69    57    52   ar
    70    25    28    1
    71    46    50    1
    72    49    51    1
    73    15    16    1
