@<TRIPOS>MOLECULE
*****
 23 24 0 0 0
SMALL
GASTEIGER

@<TRIPOS>ATOM
      1 C          64.4139   91.6320   11.8166 C.ar    1  UNL1        0.1385
      2 C          64.1452   90.5472   12.8171 C.ar    1  UNL1        0.0366
      3 C          63.2067   89.4280   12.4758 C.ar    1  UNL1       -0.0008
      4 C          62.5369   89.3935   11.1342 C.ar    1  UNL1       -0.0179
      5 C          62.8056   90.4783   10.1337 C.ar    1  UNL1       -0.0008
      6 C          63.7441   91.5976   10.4750 C.ar    1  UNL1        0.0366
      7 O          65.3524   92.7513   12.1579 O.3     1  UNL1       -0.4755
      8 C          65.6270   93.8321   11.1546 C.3     1  UNL1        0.2053
      9 C          66.8325   93.7424   10.2665 C.3     1  UNL1        0.0438
     10 C          67.3106   94.9562    9.5261 C.3     1  UNL1        0.0038
     11 C          68.8347   92.3765    9.3308 C.3     1  UNL1        0.0001
     12 C          67.5598   92.4389   10.1188 C.3     1  UNL1        0.0037
     13 C          61.5983   88.2743   10.7929 C.3     1  UNL1        0.0501
     14 C          62.1412   86.9199   10.4451 C.ar    1  UNL1       -0.0181
     15 C          62.4742   86.5886    9.0205 C.ar    1  UNL1       -0.0039
     16 C          63.0171   85.2342    8.6727 C.ar    1  UNL1       -0.0003
     17 C          63.2271   84.2112    9.7495 C.ar    1  UNL1       -0.0000
     18 C          62.8941   84.5426   11.1740 C.ar    1  UNL1       -0.0003
     19 C          62.3512   85.8969   11.5218 C.ar    1  UNL1       -0.0039
     20 C          60.1169   88.5093   10.7995 C.3     1  UNL1        0.0504
     21 C          59.5152   89.4758   11.7761 C.2     1  UNL1        0.0510
     22 O          59.1378   89.0141   13.1525 O.co2   1  UNL1       -0.5491
     23 O          59.2909   90.9041   11.3764 O.co2   1  UNL1       -0.5491
@<TRIPOS>UNITY_ATOM_ATTR
22 1
charge -1
@<TRIPOS>BOND
     1    11    12    1
     2    12     9    1
     3     9    10    1
     4     9     8    1
     5     8     7    1
     6     7     1    1
     7     1     2   ar
     8     2     3   ar
     9     3     4   ar
    10     4    13    1
    11    13    20    1
    12    20    21    1
    13    21    22   ar
    14    21    23   ar
    15    13    14    1
    16    14    15   ar
    17    15    16   ar
    18    16    17   ar
    19    17    18   ar
    20    18    19   ar
    21     4     5   ar
    22     5     6   ar
    23     6     1   ar
    24    19    14   ar
@<TRIPOS>MOLECULE
*****
 23 24 0 0 0
SMALL
GASTEIGER

@<TRIPOS>ATOM
      1 C          62.6671   89.6813   12.0321 C.ar    1  UNL1        0.1385
      2 C          62.9630   90.5564   10.8503 C.ar    1  UNL1        0.0366
      3 C          64.0445   91.5922   10.9361 C.ar    1  UNL1       -0.0008
      4 C          64.8301   91.7530   12.2038 C.ar    1  UNL1       -0.0179
      5 C          64.5342   90.8779   13.3855 C.ar    1  UNL1       -0.0008
      6 C          63.4527   89.8421   13.2997 C.ar    1  UNL1        0.0366
      7 O          61.5856   88.6455   11.9462 O.3     1  UNL1       -0.4755
      8 C          61.2507   88.0185   10.6254 C.3     1  UNL1        0.2053
      9 C          61.7746   86.6540   10.2885 C.3     1  UNL1        0.0438
     10 C          62.1821   85.7153   11.3853 C.3     1  UNL1        0.0038
     11 C          63.0092   85.3232    8.4299 C.3     1  UNL1        0.0001
     12 C          61.8910   86.2280    8.8550 C.3     1  UNL1        0.0037
     13 C          65.9117   92.7888   12.2896 C.3     1  UNL1        0.0501
     14 C          66.6691   93.1861   11.0574 C.ar    1  UNL1       -0.0181
     15 C          67.6154   92.2166   10.4135 C.ar    1  UNL1       -0.0039
     16 C          68.3729   92.6140    9.1812 C.ar    1  UNL1       -0.0003
     17 C          68.1841   93.9809    8.5930 C.ar    1  UNL1       -0.0000
     18 C          67.2378   94.9504    9.2370 C.ar    1  UNL1       -0.0003
     19 C          66.4804   94.5531   10.4691 C.ar    1  UNL1       -0.0039
     20 C          66.2357   93.4273   13.6077 C.3     1  UNL1        0.0504
     21 C          67.3132   92.8490   14.4764 C.2     1  UNL1        0.0510
     22 O          68.5817   92.3394   13.8590 O.co2   1  UNL1       -0.5491
     23 O          67.1222   92.7804   15.9627 O.co2   1  UNL1       -0.5491
@<TRIPOS>UNITY_ATOM_ATTR
22 1
charge -1
@<TRIPOS>BOND
     1    11    12    1
     2    12     9    1
     3     9    10    1
     4     9     8    1
     5     8     7    1
     6     7     1    1
     7     1     2   ar
     8     2     3   ar
     9     3     4   ar
    10     4    13    1
    11    13    20    1
    12    20    21    1
    13    21    22   ar
    14    21    23   ar
    15    13    14    1
    16    14    15   ar
    17    15    16   ar
    18    16    17   ar
    19    17    18   ar
    20    18    19   ar
    21     4     5   ar
    22     5     6   ar
    23     6     1   ar
    24    19    14   ar
@<TRIPOS>MOLECULE
*****
 23 24 0 0 0
SMALL
GASTEIGER

@<TRIPOS>ATOM
      1 C          62.5312   89.6878   11.8742 C.ar    1  UNL1        0.1385
      2 C          63.2698   89.8270   13.1723 C.ar    1  UNL1        0.0366
      3 C          64.3677   90.8403   13.3055 C.ar    1  UNL1       -0.0008
      4 C          64.7270   91.7144   12.1407 C.ar    1  UNL1       -0.0179
      5 C          63.9884   91.5752   10.8426 C.ar    1  UNL1       -0.0008
      6 C          62.8905   90.5618   10.7094 C.ar    1  UNL1        0.0366
      7 O          61.4333   88.6744   11.7410 O.3     1  UNL1       -0.4755
      8 C          61.1854   88.0064   10.4211 C.3     1  UNL1        0.2053
      9 C          61.7290   86.6326   10.1619 C.3     1  UNL1        0.0438
     10 C          62.1136   85.7490   11.3116 C.3     1  UNL1        0.0038
     11 C          63.0579   85.2775    8.3878 C.3     1  UNL1        0.0001
     12 C          61.8881   86.1423    8.7533 C.3     1  UNL1        0.0037
     13 C          65.8249   92.7277   12.2739 C.3     1  UNL1        0.0501
     14 C          66.5050   93.2622   11.0485 C.ar    1  UNL1       -0.0181
     15 C          66.1859   94.6424   10.5553 C.ar    1  UNL1       -0.0039
     16 C          66.8661   95.1768    9.3298 C.ar    1  UNL1       -0.0003
     17 C          67.8653   94.3311    8.5975 C.ar    1  UNL1       -0.0000
     18 C          68.1844   92.9509    9.0907 C.ar    1  UNL1       -0.0003
     19 C          67.5043   92.4165   10.3161 C.ar    1  UNL1       -0.0039
     20 C          66.2428   93.2066   13.6326 C.3     1  UNL1        0.0504
     21 C          67.3876   92.5457   14.3415 C.2     1  UNL1        0.0510
     22 O          67.3393   92.3547   15.8285 O.co2   1  UNL1       -0.5491
     23 O          68.5808   92.0757   13.5633 O.co2   1  UNL1       -0.5491
@<TRIPOS>UNITY_ATOM_ATTR
22 1
charge -1
@<TRIPOS>BOND
     1    11    12    1
     2    12     9    1
     3     9    10    1
     4     9     8    1
     5     8     7    1
     6     7     1    1
     7     1     2   ar
     8     2     3   ar
     9     3     4   ar
    10     4    13    1
    11    13    20    1
    12    20    21    1
    13    21    22   ar
    14    21    23   ar
    15    13    14    1
    16    14    15   ar
    17    15    16   ar
    18    16    17   ar
    19    17    18   ar
    20    18    19   ar
    21     4     5   ar
    22     5     6   ar
    23     6     1   ar
    24    19    14   ar
@<TRIPOS>MOLECULE
*****
 23 24 0 0 0
SMALL
GASTEIGER

@<TRIPOS>ATOM
      1 C          64.3318   91.4602   12.2305 C.ar    1  UNL1        0.1385
      2 C          64.0143   90.3144   13.1449 C.ar    1  UNL1        0.0366
      3 C          63.1035   89.2159   12.6825 C.ar    1  UNL1       -0.0008
      4 C          62.5101   89.2633   11.3057 C.ar    1  UNL1       -0.0179
      5 C          62.8276   90.4092   10.3913 C.ar    1  UNL1       -0.0008
      6 C          63.7384   91.5076   10.8537 C.ar    1  UNL1        0.0366
      7 O          65.2426   92.5587   12.6929 O.3     1  UNL1       -0.4755
      8 C          66.6358   92.2369   13.1459 C.3     1  UNL1        0.2053
      9 C          67.0110   92.3971   14.5893 C.3     1  UNL1        0.0438
     10 C          65.9456   92.4001   15.6453 C.3     1  UNL1        0.0038
     11 C          68.8588   93.6445   15.9233 C.3     1  UNL1        0.0001
     12 C          68.4515   92.5544   14.9769 C.3     1  UNL1        0.0037
     13 C          61.5993   88.1649   10.8433 C.3     1  UNL1        0.0501
     14 C          62.1684   86.8330   10.4531 C.ar    1  UNL1       -0.0181
     15 C          62.5052   86.5525    9.0186 C.ar    1  UNL1       -0.0039
     16 C          63.0744   85.2206    8.6285 C.ar    1  UNL1       -0.0003
     17 C          63.3067   84.1693    9.6728 C.ar    1  UNL1       -0.0000
     18 C          62.9698   84.4498   11.1074 C.ar    1  UNL1       -0.0003
     19 C          62.4007   85.7817   11.4975 C.ar    1  UNL1       -0.0039
     20 C          60.1194   88.3983   10.7710 C.3     1  UNL1        0.0504
     21 C          59.4694   89.3836   11.6966 C.2     1  UNL1        0.0510
     22 O          59.2954   90.8111   11.2703 O.co2   1  UNL1       -0.5491
     23 O          58.9933   88.9412   13.0486 O.co2   1  UNL1       -0.5491
@<TRIPOS>UNITY_ATOM_ATTR
22 1
charge -1
@<TRIPOS>BOND
     1    11    12    1
     2    12     9    1
     3     9    10    1
     4     9     8    1
     5     8     7    1
     6     7     1    1
     7     1     2   ar
     8     2     3   ar
     9     3     4   ar
    10     4    13    1
    11    13    20    1
    12    20    21    1
    13    21    22   ar
    14    21    23   ar
    15    13    14    1
    16    14    15   ar
    17    15    16   ar
    18    16    17   ar
    19    17    18   ar
    20    18    19   ar
    21     4     5   ar
    22     5     6   ar
    23     6     1   ar
    24    19    14   ar
@<TRIPOS>MOLECULE
*****
 23 24 0 0 0
SMALL
GASTEIGER

@<TRIPOS>ATOM
      1 C          63.9118   90.8482   12.6529 C.ar    1  UNL1        0.1385
      2 C          63.8798   89.4783   13.2631 C.ar    1  UNL1        0.0366
      3 C          63.1091   88.3780   12.5959 C.ar    1  UNL1       -0.0008
      4 C          62.3703   88.6475   11.3186 C.ar    1  UNL1       -0.0179
      5 C          62.4023   90.0174   10.7085 C.ar    1  UNL1       -0.0008
      6 C          63.1731   91.1178   11.3757 C.ar    1  UNL1        0.0366
      7 O          64.6826   91.9486   13.3201 O.3     1  UNL1       -0.4755
      8 C          65.4597   91.6677   14.5719 C.3     1  UNL1        0.2053
      9 C          66.9049   92.0594   14.6614 C.3     1  UNL1        0.0438
     10 C          67.8139   91.8458   13.4874 C.3     1  UNL1        0.0038
     11 C          68.6503   93.5510   15.8773 C.3     1  UNL1        0.0001
     12 C          67.4411   92.6646   15.9247 C.3     1  UNL1        0.0037
     13 C          61.5995   87.5471   10.6515 C.3     1  UNL1        0.0501
     14 C          62.2689   86.2395   10.3486 C.ar    1  UNL1       -0.0181
     15 C          62.5013   85.2439   11.4463 C.ar    1  UNL1       -0.0039
     16 C          63.1708   83.9362   11.1434 C.ar    1  UNL1       -0.0003
     17 C          63.6078   83.6240    9.7429 C.ar    1  UNL1       -0.0000
     18 C          63.3754   84.6195    8.6452 C.ar    1  UNL1       -0.0003
     19 C          62.7060   85.9272    8.9480 C.ar    1  UNL1       -0.0039
     20 C          60.1593   87.7545   10.2871 C.3     1  UNL1        0.0504
     21 C          59.7608   87.8812    8.8466 C.2     1  UNL1        0.0510
     22 O          59.1390   86.7163    8.1351 O.co2   1  UNL1       -0.5491
     23 O          59.9842   89.1730    8.1175 O.co2   1  UNL1       -0.5491
@<TRIPOS>UNITY_ATOM_ATTR
22 1
charge -1
@<TRIPOS>BOND
     1    11    12    1
     2    12     9    1
     3     9    10    1
     4     9     8    1
     5     8     7    1
     6     7     1    1
     7     1     2   ar
     8     2     3   ar
     9     3     4   ar
    10     4    13    1
    11    13    20    1
    12    20    21    1
    13    21    22   ar
    14    21    23   ar
    15    13    14    1
    16    14    15   ar
    17    15    16   ar
    18    16    17   ar
    19    17    18   ar
    20    18    19   ar
    21     4     5   ar
    22     5     6   ar
    23     6     1   ar
    24    19    14   ar
@<TRIPOS>MOLECULE
*****
 23 24 0 0 0
SMALL
GASTEIGER

@<TRIPOS>ATOM
      1 C          62.5463   89.3521   11.5595 C.ar    1  UNL1        0.1385
      2 C          63.2678   89.3775   12.8743 C.ar    1  UNL1        0.0366
      3 C          64.2899   90.4406   13.1484 C.ar    1  UNL1       -0.0008
      4 C          64.5906   91.4781   12.1078 C.ar    1  UNL1       -0.0179
      5 C          63.8691   91.4527   10.7930 C.ar    1  UNL1       -0.0008
      6 C          62.8469   90.3896   10.5189 C.ar    1  UNL1        0.0366
      7 O          61.5241   88.2890   11.2854 O.3     1  UNL1       -0.4755
      8 C          61.9623   86.9193   10.8590 C.3     1  UNL1        0.2053
      9 C          61.6684   86.4364    9.4696 C.3     1  UNL1        0.0438
     10 C          62.7516   85.7956    8.6535 C.3     1  UNL1        0.0038
     11 C          59.9019   87.8765    8.2224 C.3     1  UNL1        0.0001
     12 C          60.2913   86.5943    8.8964 C.3     1  UNL1        0.0037
     13 C          65.6127   92.5412   12.3819 C.3     1  UNL1        0.0501
     14 C          66.4737   92.4556   13.6072 C.ar    1  UNL1       -0.0181
     15 C          67.8776   91.9378   13.5026 C.ar    1  UNL1       -0.0039
     16 C          68.7386   91.8523   14.7280 C.ar    1  UNL1       -0.0003
     17 C          68.1957   92.2845   16.0578 C.ar    1  UNL1       -0.0000
     18 C          66.7918   92.8024   16.1623 C.ar    1  UNL1       -0.0003
     19 C          65.9308   92.8879   14.9370 C.ar    1  UNL1       -0.0039
     20 C          65.7739   93.6898   11.4308 C.3     1  UNL1        0.0504
     21 C          66.9039   93.6939   10.4444 C.2     1  UNL1        0.0510
     22 O          67.4641   92.3970    9.9403 O.co2   1  UNL1       -0.5491
     23 O          67.4737   94.9950    9.9621 O.co2   1  UNL1       -0.5491
@<TRIPOS>UNITY_ATOM_ATTR
22 1
charge -1
@<TRIPOS>BOND
     1    11    12    1
     2    12     9    1
     3     9    10    1
     4     9     8    1
     5     8     7    1
     6     7     1    1
     7     1     2   ar
     8     2     3   ar
     9     3     4   ar
    10     4    13    1
    11    13    20    1
    12    20    21    1
    13    21    22   ar
    14    21    23   ar
    15    13    14    1
    16    14    15   ar
    17    15    16   ar
    18    16    17   ar
    19    17    18   ar
    20    18    19   ar
    21     4     5   ar
    22     5     6   ar
    23     6     1   ar
    24    19    14   ar
@<TRIPOS>MOLECULE
*****
 23 24 0 0 0
SMALL
GASTEIGER

@<TRIPOS>ATOM
      1 C          61.7770   85.8233    9.0088 C.ar    1  UNL1        0.1385
      2 C          62.9332   84.8779    8.8695 C.ar    1  UNL1        0.0366
      3 C          63.5451   84.2565   10.0899 C.ar    1  UNL1       -0.0008
      4 C          63.0008   84.5804   11.4496 C.ar    1  UNL1       -0.0179
      5 C          61.8447   85.5258   11.5888 C.ar    1  UNL1       -0.0008
      6 C          61.2327   86.1472   10.3684 C.ar    1  UNL1        0.0366
      7 O          61.1651   86.4447    7.7884 O.3     1  UNL1       -0.4755
      8 C          59.8295   87.1211    7.8807 C.3     1  UNL1        0.2053
      9 C          59.7496   88.6176    7.9466 C.3     1  UNL1        0.0438
     10 C          59.3679   89.4027    6.7268 C.3     1  UNL1        0.0038
     11 C          61.4744   89.5786    9.6351 C.3     1  UNL1        0.0001
     12 C          60.0513   89.3288    9.2323 C.3     1  UNL1        0.0037
     13 C          63.6128   83.9590   12.6700 C.3     1  UNL1        0.0501
     14 C          63.5172   84.6561   13.9947 C.ar    1  UNL1       -0.0181
     15 C          62.5414   84.1743   15.0270 C.ar    1  UNL1       -0.0039
     16 C          62.4459   84.8714   16.3518 C.ar    1  UNL1       -0.0003
     17 C          63.3261   86.0503   16.6441 C.ar    1  UNL1       -0.0000
     18 C          64.3018   86.5321   15.6118 C.ar    1  UNL1       -0.0003
     19 C          64.3974   85.8350   14.2871 C.ar    1  UNL1       -0.0039
     20 C          64.3202   82.6405   12.5657 C.3     1  UNL1        0.0504
     21 C          63.5842   81.3685   12.8661 C.2     1  UNL1        0.0510
     22 O          63.6200   80.7902   14.2497 O.co2   1  UNL1       -0.5491
     23 O          62.8123   80.6749   11.7830 O.co2   1  UNL1       -0.5491
@<TRIPOS>UNITY_ATOM_ATTR
22 1
charge -1
@<TRIPOS>BOND
     1    11    12    1
     2    12     9    1
     3     9    10    1
     4     9     8    1
     5     8     7    1
     6     7     1    1
     7     1     2   ar
     8     2     3   ar
     9     3     4   ar
    10     4    13    1
    11    13    20    1
    12    20    21    1
    13    21    22   ar
    14    21    23   ar
    15    13    14    1
    16    14    15   ar
    17    15    16   ar
    18    16    17   ar
    19    17    18   ar
    20    18    19   ar
    21     4     5   ar
    22     5     6   ar
    23     6     1   ar
    24    19    14   ar
@<TRIPOS>MOLECULE
*****
 23 24 0 0 0
SMALL
GASTEIGER

@<TRIPOS>ATOM
      1 C          62.8881   84.7947   10.3961 C.ar    1  UNL1        0.1385
      2 C          62.7779   85.4253   11.7526 C.ar    1  UNL1        0.0366
      3 C          62.4203   86.8766   11.8783 C.ar    1  UNL1       -0.0008
      4 C          62.1730   87.6974   10.6474 C.ar    1  UNL1       -0.0179
      5 C          62.2832   87.0668    9.2909 C.ar    1  UNL1       -0.0008
      6 C          62.6407   85.6155    9.1652 C.ar    1  UNL1        0.0366
      7 O          63.2457   83.3434   10.2705 O.3     1  UNL1       -0.4755
      8 C          64.1771   82.7119   11.2622 C.3     1  UNL1        0.2053
      9 C          63.6264   82.0277   12.4782 C.3     1  UNL1        0.0438
     10 C          63.8803   82.6009   13.8409 C.3     1  UNL1        0.0038
     11 C          62.0652   80.2227   13.5052 C.3     1  UNL1        0.0001
     12 C          62.8219   80.7702   12.3315 C.3     1  UNL1        0.0037
     13 C          61.8154   89.1487   10.7730 C.3     1  UNL1        0.0501
     14 C          62.8521   90.1416   11.2082 C.ar    1  UNL1       -0.0181
     15 C          63.3515   90.1332   12.6226 C.ar    1  UNL1       -0.0039
     16 C          64.3882   91.1262   13.0578 C.ar    1  UNL1       -0.0003
     17 C          64.9255   92.1274   12.0786 C.ar    1  UNL1       -0.0000
     18 C          64.4260   92.1358   10.6642 C.ar    1  UNL1       -0.0003
     19 C          63.3894   91.1429   10.2290 C.ar    1  UNL1       -0.0039
     20 C          60.4212   89.6072   10.4634 C.3     1  UNL1        0.0504
     21 C          59.5011   90.0142   11.5760 C.2     1  UNL1        0.0510
     22 O          58.7876   91.3322   11.5150 O.co2   1  UNL1       -0.5491
     23 O          59.2944   89.1030   12.7496 O.co2   1  UNL1       -0.5491
@<TRIPOS>UNITY_ATOM_ATTR
22 1
charge -1
@<TRIPOS>BOND
     1    11    12    1
     2    12     9    1
     3     9    10    1
     4     9     8    1
     5     8     7    1
     6     7     1    1
     7     1     2   ar
     8     2     3   ar
     9     3     4   ar
    10     4    13    1
    11    13    20    1
    12    20    21    1
    13    21    22   ar
    14    21    23   ar
    15    13    14    1
    16    14    15   ar
    17    15    16   ar
    18    16    17   ar
    19    17    18   ar
    20    18    19   ar
    21     4     5   ar
    22     5     6   ar
    23     6     1   ar
    24    19    14   ar
@<TRIPOS>MOLECULE
*****
 23 24 0 0 0
SMALL
GASTEIGER

@<TRIPOS>ATOM
      1 C          61.5874   88.5918   10.1944 C.ar    1  UNL1        0.1385
      2 C          61.7619   90.0816   10.1893 C.ar    1  UNL1        0.0366
      3 C          62.6481   90.7364   11.2071 C.ar    1  UNL1       -0.0008
      4 C          63.3597   89.9014   12.2300 C.ar    1  UNL1       -0.0179
      5 C          63.1852   88.4117   12.2351 C.ar    1  UNL1       -0.0008
      6 C          62.2990   87.7569   11.2173 C.ar    1  UNL1        0.0366
      7 O          60.7012   87.9370    9.1766 O.3     1  UNL1       -0.4755
      8 C          60.6452   86.4411    9.0824 C.3     1  UNL1        0.2053
      9 C          61.5655   85.7135    8.1477 C.3     1  UNL1        0.0438
     10 C          61.0422   85.1723    6.8502 C.3     1  UNL1        0.0038
     11 C          63.4263   84.3552    9.3486 C.3     1  UNL1        0.0001
     12 C          63.0089   85.5270    8.5104 C.3     1  UNL1        0.0037
     13 C          64.2459   90.5562   13.2478 C.3     1  UNL1        0.0501
     14 C          64.9927   91.8088   12.8970 C.ar    1  UNL1       -0.0181
     15 C          65.7700   92.5390   13.9519 C.ar    1  UNL1       -0.0039
     16 C          66.5169   93.7917   13.6010 C.ar    1  UNL1       -0.0003
     17 C          66.4865   94.3141   12.1953 C.ar    1  UNL1       -0.0000
     18 C          65.7093   93.5840   11.1404 C.ar    1  UNL1       -0.0003
     19 C          64.9624   92.3314   11.4912 C.ar    1  UNL1       -0.0039
     20 C          64.3852   89.9584   14.6164 C.3     1  UNL1        0.0504
     21 C          63.3975   90.3056   15.6906 C.2     1  UNL1        0.0510
     22 O          63.5079   91.6134   16.4167 O.co2   1  UNL1       -0.5491
     23 O          62.2993   89.3448   16.0386 O.co2   1  UNL1       -0.5491
@<TRIPOS>UNITY_ATOM_ATTR
22 1
charge -1
@<TRIPOS>BOND
     1    11    12    1
     2    12     9    1
     3     9    10    1
     4     9     8    1
     5     8     7    1
     6     7     1    1
     7     1     2   ar
     8     2     3   ar
     9     3     4   ar
    10     4    13    1
    11    13    20    1
    12    20    21    1
    13    21    22   ar
    14    21    23   ar
    15    13    14    1
    16    14    15   ar
    17    15    16   ar
    18    16    17   ar
    19    17    18   ar
    20    18    19   ar
    21     4     5   ar
    22     5     6   ar
    23     6     1   ar
    24    19    14   ar
