@<TRIPOS>MOLECULE
*****
 40 45 0 0 0
SMALL
GASTEIGER

@<TRIPOS>ATOM
      1 C          63.1029   78.7925   12.4889 C.3     1  UNL1        0.2159
      2 N          63.0693   80.2922   12.4858 N.am    1  UNL1       -0.1449
      3 C          62.8475   81.0347   11.2016 C.2     1  UNL1        0.3728
      4 N          62.6592   80.2777    9.9203 N.2     1  UNL1       -0.1329
      5 N          62.8139   82.5344   11.1984 N.pl3   1  UNL1       -0.2247
      6 C          63.0022   83.2914   12.4796 C.3     1  UNL1        0.1559
      7 C          63.0186   84.7600   12.7845 C.3     1  UNL1        0.1327
      8 N          63.2505   84.9250   14.2573 N.pl3   1  UNL1       -0.2740
      9 C          63.3775   83.5585   14.8626 C.3     1  UNL1        0.1079
     10 C          63.2240   82.5488   13.7639 C.3     1  UNL1        0.1498
     11 C          63.2576   81.0492   13.7670 C.2     1  UNL1        0.2919
     12 O          63.4795   80.3066   15.0512 O.2     1  UNL1       -0.2563
     13 H          62.6813   79.2934    9.9223 H       1  UNL1        0.3058
     14 H          62.6683   83.0218   10.3555 H       1  UNL1        0.2454
     15 C          63.3399   86.2279   14.9952 C.ar    1  UNL1        0.2216
     16 N          62.9805   86.2920   16.4501 N.ar    1  UNL1       -0.2096
     17 C          63.0699   87.5950   17.1880 C.ar    1  UNL1        0.1343
     18 C          63.5185   88.8338   16.4710 C.ar    1  UNL1        0.1906
     19 F          63.6078   90.1366   17.2089 F       1  UNL1       -0.1996
     20 C          63.8778   88.7697   15.0161 C.ar    1  UNL1        0.1640
     21 N          63.7885   87.4667   14.2782 N.ar    1  UNL1       -0.1963
     22 N          64.3265   90.0084   14.2991 N.pl3   1  UNL1       -0.2862
     23 C          65.4537   90.8287   14.8527 C.3     1  UNL1        0.1243
     24 C          65.9025   92.0674   14.1357 C.3     1  UNL1        0.1636
     25 O          65.2240   92.4859   12.8651 O.3     1  UNL1       -0.3501
     26 C          64.0967   91.6657   12.3115 C.3     1  UNL1        0.1636
     27 C          63.6480   90.4269   13.0284 C.3     1  UNL1        0.1243
     28 C          62.7909   84.1661   11.2795 C.ar    1  UNL1        0.0397
     29 C          61.8100   85.2959   11.1736 C.ar    1  UNL1        0.0057
     30 C          61.9363   85.8926    9.8032 C.ar    1  UNL1        0.0068
     31 C          62.9953   85.1315    9.0621 C.ar    1  UNL1        0.0352
     32 S          63.5235   84.0644    9.9745 S.2     1  UNL1       -0.0878
     33 C          61.1429   87.0475    9.2679 C.ar    1  UNL1        0.0012
     34 C          60.7379   87.0741    7.8239 C.ar    1  UNL1        0.0001
     35 C          59.9446   88.2291    7.2885 C.ar    1  UNL1        0.0007
     36 C          59.5561   89.3575    8.1972 C.ar    1  UNL1        0.0103
     37 C          59.9611   89.3309    9.6412 C.ar    1  UNL1        0.0684
     38 C          60.7545   88.1760   10.1766 C.ar    1  UNL1        0.0103
     39 C          59.5727   90.4594   10.5500 C.1     1  UNL1        0.1004
     40 N          59.1843   91.5878   11.4587 N.1     1  UNL1       -0.1908
@<TRIPOS>BOND
     1     1     2    1
     2     2     3    1
     3     3     4    2
     4     3     5    1
     5     5     6    1
     6     6    28    1
     7    28    29   ar
     8    29    30   ar
     9    30    33    1
    10    33    34   ar
    11    34    35   ar
    12    35    36   ar
    13    36    37   ar
    14    37    39    1
    15    39    40    3
    16    37    38   ar
    17    30    31   ar
    18    31    32   ar
    19     6     7    1
    20     7     8    1
    21     8    15    1
    22    15    16   ar
    23    16    17   ar
    24    17    18   ar
    25    18    19    1
    26    18    20   ar
    27    20    22    1
    28    22    23    1
    29    23    24    1
    30    24    25    1
    31    25    26    1
    32    26    27    1
    33    20    21   ar
    34     8     9    1
    35    10     9    1
    36    10    11    1
    37    11    12    2
    38    11     2   am
    39    10     6    1
    40    32    28   ar
    41    21    15   ar
    42    38    33   ar
    43    27    22    1
    44     4    13    1
    45     5    14    1
@<TRIPOS>MOLECULE
*****
 40 45 0 0 0
SMALL
GASTEIGER

@<TRIPOS>ATOM
      1 C          58.6606   87.7427    7.0736 C.3     1  UNL1        0.2159
      2 N          59.6958   87.9431    8.1406 N.am    1  UNL1       -0.1449
      3 C          60.1099   86.7926    9.0093 C.2     1  UNL1        0.3728
      4 N          59.4888   85.4416    8.8112 N.2     1  UNL1       -0.1329
      5 N          61.1451   86.9929   10.0762 N.pl3   1  UNL1       -0.2247
      6 C          61.7662   88.3439   10.2743 C.3     1  UNL1        0.1559
      7 C          62.8036   88.8401   11.2374 C.3     1  UNL1        0.1327
      8 N          63.0306   90.2974   10.9638 N.pl3   1  UNL1       -0.2740
      9 C          62.1335   90.7018    9.8316 C.3     1  UNL1        0.1079
     10 C          61.3521   89.4944    9.4055 C.3     1  UNL1        0.1498
     11 C          60.3169   89.2940    8.3386 C.2     1  UNL1        0.2919
     12 O          59.9028   90.4445    7.4698 O.2     1  UNL1       -0.2563
     13 H          58.8094   85.3100    8.1110 H       1  UNL1        0.3058
     14 H          61.4169   86.2378   10.6465 H       1  UNL1        0.2454
     15 C          63.9868   91.1931   11.6941 C.ar    1  UNL1        0.2216
     16 N          64.2572   90.9711   13.1528 N.ar    1  UNL1       -0.2096
     17 C          65.2135   91.8669   13.8830 C.ar    1  UNL1        0.1343
     18 C          65.8993   92.9845   13.1547 C.ar    1  UNL1        0.1906
     19 F          66.8556   93.8802   13.8850 F       1  UNL1       -0.1996
     20 C          65.6290   93.2064   11.6961 C.ar    1  UNL1        0.1640
     21 N          64.6727   92.3107   10.9658 N.ar    1  UNL1       -0.1963
     22 N          66.3148   94.3240   10.9677 N.pl3   1  UNL1       -0.2862
     23 C          67.1614   94.0275    9.7655 C.3     1  UNL1        0.1243
     24 C          67.8473   95.1450    9.0370 C.3     1  UNL1        0.1636
     25 O          67.6866   96.5591    9.5108 O.3     1  UNL1       -0.3501
     26 C          66.8400   96.8557   10.7130 C.3     1  UNL1        0.1636
     27 C          66.1541   95.7381   11.4415 C.3     1  UNL1        0.1243
     28 C          62.2779   87.2932   11.2147 C.ar    1  UNL1        0.0397
     29 C          62.0437   85.8162   11.0984 C.ar    1  UNL1        0.0057
     30 C          62.7348   85.1453   12.2483 C.ar    1  UNL1        0.0068
     31 C          63.3962   86.2077   13.0753 C.ar    1  UNL1        0.0352
     32 S          63.1138   87.5352   12.4364 S.2     1  UNL1       -0.0878
     33 C          62.7601   83.6709   12.5230 C.ar    1  UNL1        0.0012
     34 C          62.7353   83.1709   13.9369 C.ar    1  UNL1        0.0001
     35 C          62.7606   81.6965   14.2116 C.ar    1  UNL1        0.0007
     36 C          62.8107   80.7220   13.0723 C.ar    1  UNL1        0.0103
     37 C          62.8355   81.2221   11.6584 C.ar    1  UNL1        0.0684
     38 C          62.8102   82.6965   11.3837 C.ar    1  UNL1        0.0103
     39 C          62.8857   80.2477   10.5190 C.1     1  UNL1        0.1004
     40 N          62.9357   79.2733    9.3797 N.1     1  UNL1       -0.1908
@<TRIPOS>BOND
     1     1     2    1
     2     2     3    1
     3     3     4    2
     4     3     5    1
     5     5     6    1
     6     6    28    1
     7    28    29   ar
     8    29    30   ar
     9    30    33    1
    10    33    34   ar
    11    34    35   ar
    12    35    36   ar
    13    36    37   ar
    14    37    39    1
    15    39    40    3
    16    37    38   ar
    17    30    31   ar
    18    31    32   ar
    19     6     7    1
    20     7     8    1
    21     8    15    1
    22    15    16   ar
    23    16    17   ar
    24    17    18   ar
    25    18    19    1
    26    18    20   ar
    27    20    22    1
    28    22    23    1
    29    23    24    1
    30    24    25    1
    31    25    26    1
    32    26    27    1
    33    20    21   ar
    34     8     9    1
    35    10     9    1
    36    10    11    1
    37    11    12    2
    38    11     2   am
    39    10     6    1
    40    32    28   ar
    41    21    15   ar
    42    38    33   ar
    43    27    22    1
    44     4    13    1
    45     5    14    1
@<TRIPOS>MOLECULE
*****
 40 45 0 0 0
SMALL
GASTEIGER

@<TRIPOS>ATOM
      1 C          58.2992   88.0832    6.6324 C.3     1  UNL1        0.2159
      2 N          59.3613   87.8547    7.6668 N.am    1  UNL1       -0.1449
      3 C          59.9375   86.4834    7.8599 C.2     1  UNL1        0.3728
      4 N          59.4516   85.3404    7.0187 N.2     1  UNL1       -0.1329
      5 N          60.9996   86.2550    8.8943 N.pl3   1  UNL1       -0.2247
      6 C          61.4854   87.3980    9.7355 C.3     1  UNL1        0.1559
      7 C          62.5134   87.4763   10.8250 C.3     1  UNL1        0.1327
      8 N          62.5725   88.8962   11.3051 N.pl3   1  UNL1       -0.2740
      9 C          61.5811   89.6953   10.5124 C.3     1  UNL1        0.1079
     10 C          60.9092   88.7693    9.5422 C.3     1  UNL1        0.1498
     11 C          59.8472   88.9977    8.5079 C.2     1  UNL1        0.2919
     12 O          59.2710   90.3691    8.3147 O.2     1  UNL1       -0.2563
     13 H          58.7546   85.4903    6.3399 H       1  UNL1        0.3058
     14 H          61.3778   85.3549    9.0211 H       1  UNL1        0.2454
     15 C          63.4662   89.4242   12.3879 C.ar    1  UNL1        0.2216
     16 N          63.7156   88.6060   13.6201 N.ar    1  UNL1       -0.2096
     17 C          64.6093   89.1341   14.7029 C.ar    1  UNL1        0.1343
     18 C          65.2536   90.4805   14.5536 C.ar    1  UNL1        0.1906
     19 F          66.1473   91.0085   15.6364 F       1  UNL1       -0.1996
     20 C          65.0042   91.2987   13.3214 C.ar    1  UNL1        0.1640
     21 N          64.1105   90.7706   12.2386 N.ar    1  UNL1       -0.1963
     22 N          65.6485   92.6450   13.1720 N.pl3   1  UNL1       -0.2862
     23 C          66.3298   93.2847   14.3452 C.3     1  UNL1        0.1243
     24 C          66.9741   94.6310   14.1959 C.3     1  UNL1        0.1636
     25 O          66.9370   95.3376   12.8733 O.3     1  UNL1       -0.3501
     26 C          66.2557   94.6979   11.7000 C.3     1  UNL1        0.1636
     27 C          65.6114   93.3516   11.8493 C.3     1  UNL1        0.1243
     28 C          62.1518   86.0893   10.0407 C.ar    1  UNL1        0.0397
     29 C          61.9020   85.2328   11.2465 C.ar    1  UNL1        0.0057
     30 C          62.7809   84.0215   11.1448 C.ar    1  UNL1        0.0068
     31 C          63.5740   84.1294    9.8762 C.ar    1  UNL1        0.0352
     32 S          63.1852   85.4074    9.1938 S.2     1  UNL1       -0.0878
     33 C          62.8539   82.8993   12.1374 C.ar    1  UNL1        0.0012
     34 C          64.1874   82.4078   12.6172 C.ar    1  UNL1        0.0001
     35 C          64.2605   81.2856   13.6098 C.ar    1  UNL1        0.0007
     36 C          62.9999   80.6548   14.1227 C.ar    1  UNL1        0.0103
     37 C          61.6664   81.1463   13.6430 C.ar    1  UNL1        0.0684
     38 C          61.5934   82.2685   12.6504 C.ar    1  UNL1        0.0103
     39 C          60.4058   80.5155   14.1559 C.1     1  UNL1        0.1004
     40 N          59.1452   79.8848   14.6689 N.1     1  UNL1       -0.1908
@<TRIPOS>BOND
     1     1     2    1
     2     2     3    1
     3     3     4    2
     4     3     5    1
     5     5     6    1
     6     6    28    1
     7    28    29   ar
     8    29    30   ar
     9    30    33    1
    10    33    34   ar
    11    34    35   ar
    12    35    36   ar
    13    36    37   ar
    14    37    39    1
    15    39    40    3
    16    37    38   ar
    17    30    31   ar
    18    31    32   ar
    19     6     7    1
    20     7     8    1
    21     8    15    1
    22    15    16   ar
    23    16    17   ar
    24    17    18   ar
    25    18    19    1
    26    18    20   ar
    27    20    22    1
    28    22    23    1
    29    23    24    1
    30    24    25    1
    31    25    26    1
    32    26    27    1
    33    20    21   ar
    34     8     9    1
    35    10     9    1
    36    10    11    1
    37    11    12    2
    38    11     2   am
    39    10     6    1
    40    32    28   ar
    41    21    15   ar
    42    38    33   ar
    43    27    22    1
    44     4    13    1
    45     5    14    1
@<TRIPOS>MOLECULE
*****
 40 45 0 0 0
SMALL
GASTEIGER

@<TRIPOS>ATOM
      1 C          59.7492   88.0662    7.5093 C.3     1  UNL1        0.2159
      2 N          60.5343   88.0112    8.7863 N.am    1  UNL1       -0.1449
      3 C          60.9720   86.6882    9.3412 C.2     1  UNL1        0.3728
      4 N          60.6246   85.4200    8.6191 N.2     1  UNL1       -0.1329
      5 N          61.7571   86.6332   10.6182 N.pl3   1  UNL1       -0.2247
      6 C          62.1045   87.9013   11.3402 C.3     1  UNL1        0.1559
      7 C          62.8616   88.1586   12.6093 C.3     1  UNL1        0.1327
      8 N          62.8917   89.6406   12.8386 N.pl3   1  UNL1       -0.2740
      9 C          62.1533   90.2993   11.7113 C.3     1  UNL1        0.1079
     10 C          61.6667   89.2243   10.7852 C.3     1  UNL1        0.1498
     11 C          60.8816   89.2793    9.5082 C.2     1  UNL1        0.2919
     12 O          60.4439   90.6023    8.9533 O.2     1  UNL1       -0.2563
     13 H          60.1094   85.4561    7.7810 H       1  UNL1        0.3058
     14 H          62.0444   85.7649   10.9824 H       1  UNL1        0.2454
     15 C          63.5455   90.3410   13.9927 C.ar    1  UNL1        0.2216
     16 N          62.8011   90.5159   15.2832 N.ar    1  UNL1       -0.2096
     17 C          63.4550   91.2163   16.4372 C.ar    1  UNL1        0.1343
     18 C          64.8532   91.7420   16.3009 C.ar    1  UNL1        0.1906
     19 F          65.5070   92.4424   17.4550 F       1  UNL1       -0.1996
     20 C          65.5977   91.5671   15.0104 C.ar    1  UNL1        0.1640
     21 N          64.9438   90.8667   13.8564 N.ar    1  UNL1       -0.1963
     22 N          66.9959   92.0927   14.8740 N.pl3   1  UNL1       -0.2862
     23 C          67.8567   91.6459   13.7297 C.3     1  UNL1        0.1243
     24 C          69.2550   92.1714   13.5932 C.3     1  UNL1        0.1636
     25 O          69.7924   93.1438   14.6010 O.3     1  UNL1       -0.3501
     26 C          68.9316   93.5907   15.7452 C.3     1  UNL1        0.1636
     27 C          67.5333   93.0651   15.8817 C.3     1  UNL1        0.1243
     28 C          62.6081   86.6587   12.0127 C.ar    1  UNL1        0.0397
     29 C          62.1028   85.2652   11.7829 C.ar    1  UNL1        0.0057
     30 C          62.8880   84.3368   12.6613 C.ar    1  UNL1        0.0068
     31 C          63.8785   85.1564   13.4339 C.ar    1  UNL1        0.0352
     32 S          63.7056   86.5915   13.0330 S.2     1  UNL1       -0.0878
     33 C          62.7132   82.8497   12.7513 C.ar    1  UNL1        0.0012
     34 C          62.3280   82.2173   14.0558 C.ar    1  UNL1        0.0001
     35 C          62.1533   80.7303   14.1458 C.ar    1  UNL1        0.0007
     36 C          62.3638   79.8755   12.9312 C.ar    1  UNL1        0.0103
     37 C          62.7490   80.5079   11.6268 C.ar    1  UNL1        0.0684
     38 C          62.9237   81.9949   11.5368 C.ar    1  UNL1        0.0103
     39 C          62.9595   79.6532   10.4122 C.1     1  UNL1        0.1004
     40 N          63.1700   78.7985    9.1975 N.1     1  UNL1       -0.1908
@<TRIPOS>BOND
     1     1     2    1
     2     2     3    1
     3     3     4    2
     4     3     5    1
     5     5     6    1
     6     6    28    1
     7    28    29   ar
     8    29    30   ar
     9    30    33    1
    10    33    34   ar
    11    34    35   ar
    12    35    36   ar
    13    36    37   ar
    14    37    39    1
    15    39    40    3
    16    37    38   ar
    17    30    31   ar
    18    31    32   ar
    19     6     7    1
    20     7     8    1
    21     8    15    1
    22    15    16   ar
    23    16    17   ar
    24    17    18   ar
    25    18    19    1
    26    18    20   ar
    27    20    22    1
    28    22    23    1
    29    23    24    1
    30    24    25    1
    31    25    26    1
    32    26    27    1
    33    20    21   ar
    34     8     9    1
    35    10     9    1
    36    10    11    1
    37    11    12    2
    38    11     2   am
    39    10     6    1
    40    32    28   ar
    41    21    15   ar
    42    38    33   ar
    43    27    22    1
    44     4    13    1
    45     5    14    1
@<TRIPOS>MOLECULE
*****
 40 45 0 0 0
SMALL
GASTEIGER

@<TRIPOS>ATOM
      1 C          58.0393   88.1766    6.4083 C.3     1  UNL1        0.2159
      2 N          59.1489   88.1781    7.4177 N.am    1  UNL1       -0.1449
      3 C          59.6609   86.8816    7.9715 C.2     1  UNL1        0.3728
      4 N          59.0632   85.5833    7.5159 N.2     1  UNL1       -0.1329
      5 N          60.7705   86.8832    8.9808 N.pl3   1  UNL1       -0.2247
      6 C          61.3682   88.1814    9.4363 C.3     1  UNL1        0.1559
      7 C          62.4638   88.4944   10.4118 C.3     1  UNL1        0.1327
      8 N          62.6290   89.9844   10.4608 N.pl3   1  UNL1       -0.2740
      9 C          61.6354   90.5923    9.5156 C.3     1  UNL1        0.1079
     10 C          60.8562   89.4780    8.8825 C.3     1  UNL1        0.1498
     11 C          59.7466   89.4763    7.8731 C.2     1  UNL1        0.2919
     12 O          59.2346   90.7729    7.3193 O.2     1  UNL1       -0.2563
     13 H          58.3349   85.5823    6.8535 H       1  UNL1        0.3058
     14 H          61.1066   86.0322    9.3443 H       1  UNL1        0.2454
     15 C          63.6147   90.7349   11.3065 C.ar    1  UNL1        0.2216
     16 N          63.8308   90.3382   12.7368 N.ar    1  UNL1       -0.2096
     17 C          64.8166   91.0888   13.5825 C.ar    1  UNL1        0.1343
     18 C          65.5861   92.2359   12.9978 C.ar    1  UNL1        0.1906
     19 F          66.5718   92.9864   13.8436 F       1  UNL1       -0.1996
     20 C          65.3700   92.6326   11.5675 C.ar    1  UNL1        0.1640
     21 N          64.3842   91.8820   10.7218 N.ar    1  UNL1       -0.1963
     22 N          66.1395   93.7797   10.9828 N.pl3   1  UNL1       -0.2862
     23 C          67.0997   93.5414    9.8553 C.3     1  UNL1        0.1243
     24 C          67.8693   94.6885    9.2705 C.3     1  UNL1        0.1636
     25 O          67.6786   96.0738    9.8132 O.3     1  UNL1       -0.3501
     26 C          66.7183   96.3121   10.9407 C.3     1  UNL1        0.1636
     27 C          65.9488   95.1650   11.5254 C.3     1  UNL1        0.1243
     28 C          61.9803   86.9703   10.0754 C.ar    1  UNL1        0.0397
     29 C          62.0772   86.7046   11.5485 C.ar    1  UNL1        0.0057
     30 C          62.7599   85.3824   11.7372 C.ar    1  UNL1        0.0068
     31 C          63.0850   84.8308   10.3807 C.ar    1  UNL1        0.0352
     32 S          62.6032   85.8122    9.3537 S.2     1  UNL1       -0.0878
     33 C          63.0640   84.7268   13.0516 C.ar    1  UNL1        0.0012
     34 C          63.6524   83.3474   13.0833 C.ar    1  UNL1        0.0001
     35 C          63.9566   82.6917   14.3977 C.ar    1  UNL1        0.0007
     36 C          63.6724   83.4155   15.6805 C.ar    1  UNL1        0.0103
     37 C          63.0840   84.7949   15.6487 C.ar    1  UNL1        0.0684
     38 C          62.7798   85.4506   14.3343 C.ar    1  UNL1        0.0103
     39 C          62.7998   85.5188   16.9314 C.1     1  UNL1        0.1004
     40 N          62.5155   86.2427   18.2141 N.1     1  UNL1       -0.1908
@<TRIPOS>BOND
     1     1     2    1
     2     2     3    1
     3     3     4    2
     4     3     5    1
     5     5     6    1
     6     6    28    1
     7    28    29   ar
     8    29    30   ar
     9    30    33    1
    10    33    34   ar
    11    34    35   ar
    12    35    36   ar
    13    36    37   ar
    14    37    39    1
    15    39    40    3
    16    37    38   ar
    17    30    31   ar
    18    31    32   ar
    19     6     7    1
    20     7     8    1
    21     8    15    1
    22    15    16   ar
    23    16    17   ar
    24    17    18   ar
    25    18    19    1
    26    18    20   ar
    27    20    22    1
    28    22    23    1
    29    23    24    1
    30    24    25    1
    31    25    26    1
    32    26    27    1
    33    20    21   ar
    34     8     9    1
    35    10     9    1
    36    10    11    1
    37    11    12    2
    38    11     2   am
    39    10     6    1
    40    32    28   ar
    41    21    15   ar
    42    38    33   ar
    43    27    22    1
    44     4    13    1
    45     5    14    1
@<TRIPOS>MOLECULE
*****
 40 45 0 0 0
SMALL
GASTEIGER

@<TRIPOS>ATOM
      1 C          63.9089   80.1602   13.7535 C.3     1  UNL1        0.2159
      2 N          63.7059   81.6345   13.5657 N.am    1  UNL1       -0.1449
      3 C          63.1200   82.1540   12.2864 C.2     1  UNL1        0.3728
      4 N          62.7370   81.1992   11.1947 N.2     1  UNL1       -0.1329
      5 N          62.9170   83.6284   12.0987 N.pl3   1  UNL1       -0.2247
      6 C          63.3000   84.5831   13.1903 C.3     1  UNL1        0.1559
      7 C          63.2178   86.0774   13.2913 C.3     1  UNL1        0.1327
      8 N          63.7529   86.4814   14.6331 N.pl3   1  UNL1       -0.2740
      9 C          64.1659   85.2368   15.3614 C.3     1  UNL1        0.1079
     10 C          63.8859   84.0636   14.4697 C.3     1  UNL1        0.1498
     11 C          64.0889   82.5893   14.6574 C.2     1  UNL1        0.2919
     12 O          64.6749   82.0697   15.9367 O.2     1  UNL1       -0.2563
     13 H          62.8702   80.2315   11.3179 H       1  UNL1        0.3058
     14 H          62.5324   83.9693   11.2590 H       1  UNL1        0.2454
     15 C          63.8568   87.8839   15.1550 C.ar    1  UNL1        0.2216
     16 N          63.1559   88.2653   16.4251 N.ar    1  UNL1       -0.2096
     17 C          63.2599   89.6678   16.9470 C.ar    1  UNL1        0.1343
     18 C          64.0648   90.6888   16.1988 C.ar    1  UNL1        0.1906
     19 F          64.1687   92.0912   16.7207 F       1  UNL1       -0.1996
     20 C          64.7657   90.3073   14.9287 C.ar    1  UNL1        0.1640
     21 N          64.6617   88.9048   14.4068 N.ar    1  UNL1       -0.1963
     22 N          65.5706   91.3282   14.1805 N.pl3   1  UNL1       -0.2862
     23 C          66.9349   91.7135   14.6705 C.3     1  UNL1        0.1243
     24 C          67.7399   92.7344   13.9223 C.3     1  UNL1        0.1636
     25 O          67.1805   93.3700   12.6841 O.3     1  UNL1       -0.3501
     26 C          65.8162   92.9847   12.1941 C.3     1  UNL1        0.1636
     27 C          65.0112   91.9638   12.9423 C.3     1  UNL1        0.1243
     28 C          62.7281   85.2463   11.9725 C.ar    1  UNL1        0.0397
     29 C          62.0482   86.5828   11.9337 C.ar    1  UNL1        0.0057
     30 C          61.6356   86.8520   10.5168 C.ar    1  UNL1        0.0068
     31 C          62.0606   85.6819    9.6800 C.ar    1  UNL1        0.0352
     32 S          62.7358   84.6895   10.5797 S.2     1  UNL1       -0.0878
     33 C          60.9232   88.0763   10.0234 C.ar    1  UNL1        0.0012
     34 C          60.6173   89.1988   10.9702 C.ar    1  UNL1        0.0001
     35 C          59.9049   90.4231   10.4768 C.ar    1  UNL1        0.0007
     36 C          59.4983   90.5249    9.0365 C.ar    1  UNL1        0.0103
     37 C          59.8041   89.4024    8.0898 C.ar    1  UNL1        0.0684
     38 C          60.5165   88.1781    8.5832 C.ar    1  UNL1        0.0103
     39 C          59.3975   89.5042    6.6495 C.1     1  UNL1        0.1004
     40 N          58.9910   89.6059    5.2092 N.1     1  UNL1       -0.1908
@<TRIPOS>BOND
     1     1     2    1
     2     2     3    1
     3     3     4    2
     4     3     5    1
     5     5     6    1
     6     6    28    1
     7    28    29   ar
     8    29    30   ar
     9    30    33    1
    10    33    34   ar
    11    34    35   ar
    12    35    36   ar
    13    36    37   ar
    14    37    39    1
    15    39    40    3
    16    37    38   ar
    17    30    31   ar
    18    31    32   ar
    19     6     7    1
    20     7     8    1
    21     8    15    1
    22    15    16   ar
    23    16    17   ar
    24    17    18   ar
    25    18    19    1
    26    18    20   ar
    27    20    22    1
    28    22    23    1
    29    23    24    1
    30    24    25    1
    31    25    26    1
    32    26    27    1
    33    20    21   ar
    34     8     9    1
    35    10     9    1
    36    10    11    1
    37    11    12    2
    38    11     2   am
    39    10     6    1
    40    32    28   ar
    41    21    15   ar
    42    38    33   ar
    43    27    22    1
    44     4    13    1
    45     5    14    1
@<TRIPOS>MOLECULE
*****
 40 45 0 0 0
SMALL
GASTEIGER

@<TRIPOS>ATOM
      1 C          58.8221   88.5060    6.1073 C.3     1  UNL1        0.2159
      2 N          59.6283   88.4044    7.3682 N.am    1  UNL1       -0.1449
      3 C          60.1450   89.6471    8.0303 C.2     1  UNL1        0.3728
      4 N          59.8556   90.9917    7.4315 N.2     1  UNL1       -0.1329
      5 N          60.9512   89.5454    9.2912 N.pl3   1  UNL1       -0.2247
      6 C          61.2406   88.2009    9.8899 C.3     1  UNL1        0.1559
      7 C          62.0018   87.7908   11.1156 C.3     1  UNL1        0.1327
      8 N          61.9555   86.2946   11.2110 N.pl3   1  UNL1       -0.2740
      9 C          61.1656   85.7799   10.0442 C.3     1  UNL1        0.1079
     10 C          60.7238   86.9581    9.2277 C.3     1  UNL1        0.1498
     11 C          59.9176   87.0598    7.9669 C.2     1  UNL1        0.2919
     12 O          59.4008   85.8170    7.3047 O.2     1  UNL1       -0.2563
     13 H          59.3265   91.0585    6.6039 H       1  UNL1        0.3058
     14 H          61.2904   90.3611    9.7257 H       1  UNL1        0.2454
     15 C          62.5880   85.4595   12.2846 C.ar    1  UNL1        0.2216
     16 N          63.6026   86.0671   13.2073 N.ar    1  UNL1       -0.2096
     17 C          64.2350   85.2320   14.2809 C.ar    1  UNL1        0.1343
     18 C          63.8529   83.7894   14.4319 C.ar    1  UNL1        0.1906
     19 F          64.4854   82.9544   15.5055 F       1  UNL1       -0.1996
     20 C          62.8383   83.1818   13.5092 C.ar    1  UNL1        0.1640
     21 N          62.2059   84.0169   12.4355 N.ar    1  UNL1       -0.1963
     22 N          62.4562   81.7392   13.6600 N.pl3   1  UNL1       -0.2862
     23 C          61.0795   81.3733   14.1300 C.3     1  UNL1        0.1243
     24 C          60.6972   79.9307   14.2808 C.3     1  UNL1        0.1636
     25 O          61.6916   78.8540   13.9618 O.3     1  UNL1       -0.3501
     26 C          63.0683   79.2199   13.4919 C.3     1  UNL1        0.1636
     27 C          63.4506   80.6625   13.3410 C.3     1  UNL1        0.1243
     28 C          61.8206   89.3496   10.6606 C.ar    1  UNL1        0.0397
     29 C          63.1489   89.9993   10.4085 C.ar    1  UNL1        0.0057
     30 C          63.3234   91.1015   11.4109 C.ar    1  UNL1        0.0068
     31 C          62.1029   91.1331   12.2823 C.ar    1  UNL1        0.0352
     32 S          61.1741   90.0503   11.8186 S.2     1  UNL1       -0.0878
     33 C          64.5100   92.0123   11.5221 C.ar    1  UNL1        0.0012
     34 C          65.0183   92.7336   10.3092 C.ar    1  UNL1        0.0001
     35 C          66.2049   93.6444   10.4205 C.ar    1  UNL1        0.0007
     36 C          66.8832   93.8340   11.7448 C.ar    1  UNL1        0.0103
     37 C          66.3749   93.1127   12.9578 C.ar    1  UNL1        0.0684
     38 C          65.1883   92.2019   12.8465 C.ar    1  UNL1        0.0103
     39 C          67.0532   93.3023   14.2822 C.1     1  UNL1        0.1004
     40 N          67.7314   93.4918   15.6066 N.1     1  UNL1       -0.1908
@<TRIPOS>BOND
     1     1     2    1
     2     2     3    1
     3     3     4    2
     4     3     5    1
     5     5     6    1
     6     6    28    1
     7    28    29   ar
     8    29    30   ar
     9    30    33    1
    10    33    34   ar
    11    34    35   ar
    12    35    36   ar
    13    36    37   ar
    14    37    39    1
    15    39    40    3
    16    37    38   ar
    17    30    31   ar
    18    31    32   ar
    19     6     7    1
    20     7     8    1
    21     8    15    1
    22    15    16   ar
    23    16    17   ar
    24    17    18   ar
    25    18    19    1
    26    18    20   ar
    27    20    22    1
    28    22    23    1
    29    23    24    1
    30    24    25    1
    31    25    26    1
    32    26    27    1
    33    20    21   ar
    34     8     9    1
    35    10     9    1
    36    10    11    1
    37    11    12    2
    38    11     2   am
    39    10     6    1
    40    32    28   ar
    41    21    15   ar
    42    38    33   ar
    43    27    22    1
    44     4    13    1
    45     5    14    1
@<TRIPOS>MOLECULE
*****
 40 45 0 0 0
SMALL
GASTEIGER

@<TRIPOS>ATOM
      1 C          58.7882   88.4801    6.0540 C.3     1  UNL1        0.2159
      2 N          59.5933   88.3910    7.3167 N.am    1  UNL1       -0.1449
      3 C          60.1019   89.6409    7.9715 C.2     1  UNL1        0.3728
      4 N          59.8056   90.9800    7.3638 N.2     1  UNL1       -0.1329
      5 N          60.9070   89.5519    9.2341 N.pl3   1  UNL1       -0.2247
      6 C          61.2032   88.2128    9.8418 C.3     1  UNL1        0.1559
      7 C          61.9651   87.8150   11.0711 C.3     1  UNL1        0.1327
      8 N          61.9273   86.3191   11.1759 N.pl3   1  UNL1       -0.2740
      9 C          61.1420   85.7925   10.0114 C.3     1  UNL1        0.1079
     10 C          60.6945   86.9629    9.1868 C.3     1  UNL1        0.1498
     11 C          59.8895   87.0520    7.9243 C.2     1  UNL1        0.2919
     12 O          59.3808   85.8021    7.2694 O.2     1  UNL1       -0.2563
     13 H          59.2773   91.0385    6.5352 H       1  UNL1        0.3058
     14 H          61.2408   90.3722    9.6640 H       1  UNL1        0.2454
     15 C          62.5631   85.4946   12.2557 C.ar    1  UNL1        0.2216
     16 N          63.5700   86.1149   13.1783 N.ar    1  UNL1       -0.2096
     17 C          64.2057   85.2902   14.2581 C.ar    1  UNL1        0.1343
     18 C          63.8346   83.8454   14.4152 C.ar    1  UNL1        0.1906
     19 F          64.4704   83.0209   15.4950 F       1  UNL1       -0.1996
     20 C          62.8277   83.2251   13.4925 C.ar    1  UNL1        0.1640
     21 N          62.1920   84.0497   12.4128 N.ar    1  UNL1       -0.1963
     22 N          62.4566   81.7803   13.6496 N.pl3   1  UNL1       -0.2862
     23 C          61.0821   81.4059   14.1193 C.3     1  UNL1        0.1243
     24 C          60.7108   79.9611   14.2764 C.3     1  UNL1        0.1636
     25 O          61.7140   78.8907   13.9637 O.3     1  UNL1       -0.3501
     26 C          63.0885   79.2651   13.4939 C.3     1  UNL1        0.1636
     27 C          63.4598   80.7099   13.3368 C.3     1  UNL1        0.1243
     28 C          61.7756   89.3697   10.6059 C.ar    1  UNL1        0.0397
     29 C          63.1616   89.9241   10.4592 C.ar    1  UNL1        0.0057
     30 C          63.3050   91.0724   11.4136 C.ar    1  UNL1        0.0068
     31 C          62.0076   91.2278   12.1501 C.ar    1  UNL1        0.0352
     32 S          61.0623   90.1755   11.6509 S.2     1  UNL1       -0.0878
     33 C          64.5306   91.9171   11.5989 C.ar    1  UNL1        0.0012
     34 C          65.2017   91.9814   12.9389 C.ar    1  UNL1        0.0001
     35 C          66.4273   92.8260   13.1242 C.ar    1  UNL1        0.0007
     36 C          66.9820   93.6064   11.9695 C.ar    1  UNL1        0.0103
     37 C          66.3110   93.5421   10.6295 C.ar    1  UNL1        0.0684
     38 C          65.0853   92.6974   10.4442 C.ar    1  UNL1        0.0103
     39 C          66.8656   94.3225    9.4747 C.1     1  UNL1        0.1004
     40 N          67.4202   95.1029    8.3200 N.1     1  UNL1       -0.1908
@<TRIPOS>BOND
     1     1     2    1
     2     2     3    1
     3     3     4    2
     4     3     5    1
     5     5     6    1
     6     6    28    1
     7    28    29   ar
     8    29    30   ar
     9    30    33    1
    10    33    34   ar
    11    34    35   ar
    12    35    36   ar
    13    36    37   ar
    14    37    39    1
    15    39    40    3
    16    37    38   ar
    17    30    31   ar
    18    31    32   ar
    19     6     7    1
    20     7     8    1
    21     8    15    1
    22    15    16   ar
    23    16    17   ar
    24    17    18   ar
    25    18    19    1
    26    18    20   ar
    27    20    22    1
    28    22    23    1
    29    23    24    1
    30    24    25    1
    31    25    26    1
    32    26    27    1
    33    20    21   ar
    34     8     9    1
    35    10     9    1
    36    10    11    1
    37    11    12    2
    38    11     2   am
    39    10     6    1
    40    32    28   ar
    41    21    15   ar
    42    38    33   ar
    43    27    22    1
    44     4    13    1
    45     5    14    1
@<TRIPOS>MOLECULE
*****
 40 45 0 0 0
SMALL
GASTEIGER

@<TRIPOS>ATOM
      1 C          59.7352   89.9853    8.1475 C.3     1  UNL1        0.2159
      2 N          60.5401   89.2693    9.1914 N.am    1  UNL1       -0.1449
      3 C          61.4064   90.0487   10.1357 C.2     1  UNL1        0.3728
      4 N          61.4679   91.5442   10.0364 N.2     1  UNL1       -0.1329
      5 N          62.2113   89.3327   11.1796 N.pl3   1  UNL1       -0.2247
      6 C          62.1498   87.8373   11.2790 C.3     1  UNL1        0.1559
      7 C          62.8257   86.8639   12.1985 C.3     1  UNL1        0.1327
      8 N          62.3771   85.4829   11.8224 N.pl3   1  UNL1       -0.2740
      9 C          61.4240   85.6027   10.6703 C.3     1  UNL1        0.1079
     10 C          61.2835   87.0579   10.3345 C.3     1  UNL1        0.1498
     11 C          60.4786   87.7739    9.2907 C.2     1  UNL1        0.2919
     12 O          59.6123   86.9945    8.3462 O.2     1  UNL1       -0.2563
     13 H          60.9396   92.0142    9.3513 H       1  UNL1        0.3058
     14 H          62.7799   89.8443   11.7995 H       1  UNL1        0.2454
     15 C          62.8063   84.2061   12.4824 C.ar    1  UNL1        0.2216
     16 N          63.3716   84.2330   13.8715 N.ar    1  UNL1       -0.2096
     17 C          63.8007   82.9561   14.5315 C.ar    1  UNL1        0.1343
     18 C          63.6647   81.6524   13.8023 C.ar    1  UNL1        0.1906
     19 F          64.0938   80.3756   14.4623 F       1  UNL1       -0.1996
     20 C          63.0994   81.6254   12.4132 C.ar    1  UNL1        0.1640
     21 N          62.6702   82.9023   11.7532 N.ar    1  UNL1       -0.1963
     22 N          62.9633   80.3217   11.6839 N.pl3   1  UNL1       -0.2862
     23 C          62.6416   79.0682   12.4424 C.3     1  UNL1        0.1243
     24 C          62.5055   77.7645   11.7133 C.3     1  UNL1        0.1636
     25 O          62.6910   77.7142   10.2257 O.3     1  UNL1       -0.3501
     26 C          63.0127   78.9677    9.4672 C.3     1  UNL1        0.1636
     27 C          63.1488   80.2715   10.1963 C.3     1  UNL1        0.1243
     28 C          63.0562   88.4790   12.2872 C.ar    1  UNL1        0.0397
     29 C          63.6364   89.8594   12.1987 C.ar    1  UNL1        0.0057
     30 C          64.4804   90.0865   13.4178 C.ar    1  UNL1        0.0068
     31 C          64.4218   88.8465   14.2597 C.ar    1  UNL1        0.0352
     32 S          63.5416   87.8530   13.5609 S.2     1  UNL1       -0.0878
     33 C          65.2481   91.3346   13.7387 C.ar    1  UNL1        0.0012
     34 C          65.8450   91.5182   15.1025 C.ar    1  UNL1        0.0001
     35 C          66.6127   92.7663   15.4233 C.ar    1  UNL1        0.0007
     36 C          66.7836   93.8307   14.3804 C.ar    1  UNL1        0.0103
     37 C          66.1867   93.6471   13.0166 C.ar    1  UNL1        0.0684
     38 C          65.4190   92.3990   12.6957 C.ar    1  UNL1        0.0103
     39 C          66.3576   94.7115   11.9735 C.1     1  UNL1        0.1004
     40 N          66.5285   95.7758   10.9305 N.1     1  UNL1       -0.1908
@<TRIPOS>BOND
     1     1     2    1
     2     2     3    1
     3     3     4    2
     4     3     5    1
     5     5     6    1
     6     6    28    1
     7    28    29   ar
     8    29    30   ar
     9    30    33    1
    10    33    34   ar
    11    34    35   ar
    12    35    36   ar
    13    36    37   ar
    14    37    39    1
    15    39    40    3
    16    37    38   ar
    17    30    31   ar
    18    31    32   ar
    19     6     7    1
    20     7     8    1
    21     8    15    1
    22    15    16   ar
    23    16    17   ar
    24    17    18   ar
    25    18    19    1
    26    18    20   ar
    27    20    22    1
    28    22    23    1
    29    23    24    1
    30    24    25    1
    31    25    26    1
    32    26    27    1
    33    20    21   ar
    34     8     9    1
    35    10     9    1
    36    10    11    1
    37    11    12    2
    38    11     2   am
    39    10     6    1
    40    32    28   ar
    41    21    15   ar
    42    38    33   ar
    43    27    22    1
    44     4    13    1
    45     5    14    1
