@<TRIPOS>MOLECULE
*****
 26 28 0 0 0
SMALL
GASTEIGER

@<TRIPOS>ATOM
      1 C          64.1253   91.0619   12.7369 C.ar    1  UNL1        0.1386
      2 C          63.7217   89.6858   13.1766 C.ar    1  UNL1        0.0369
      3 C          62.9553   88.7952   12.2442 C.ar    1  UNL1        0.0043
      4 C          62.5925   89.2807   10.8721 C.ar    1  UNL1        0.0153
      5 C          62.9960   90.6568   10.4324 C.ar    1  UNL1        0.0043
      6 C          63.7624   91.5474   11.3648 C.ar    1  UNL1        0.0369
      7 C          61.8261   88.3900    9.9397 C.2     1  UNL1        0.0767
      8 N          60.4127   88.7301    9.5700 N.2     1  UNL1       -0.1836
      9 N          59.6463   87.8394    8.6376 N.am    1  UNL1       -0.2062
     10 C          60.2933   86.6086    8.0750 C.2     1  UNL1        0.2405
     11 O          59.5269   85.7179    7.1426 O.2     1  UNL1       -0.2734
     12 C          61.7067   86.2685    8.4448 C.3     1  UNL1        0.0761
     13 C          63.0113   85.5300    8.4970 C.3     1  UNL1        0.0095
     14 C          61.3934   85.1213    7.5305 C.3     1  UNL1        0.0095
     15 C          62.4730   87.1592    9.3771 C.3     1  UNL1        0.0560
     16 H          58.7186   88.0626    8.3949 H       1  UNL1        0.1772
     17 O          64.8917   91.9527   13.6693 O.3     1  UNL1       -0.4754
     18 C          66.2502   91.5401   14.1533 C.3     1  UNL1        0.2068
     19 C          67.4800   92.0648   13.4732 C.3     1  UNL1        0.0646
     20 C          67.6240   91.9427   11.9852 C.3     1  UNL1        0.0759
     21 C          68.6482   92.4033    8.9212 C.3     1  UNL1        0.0173
     22 C          67.7345   93.3101    9.6911 C.3     1  UNL1        0.0576
     23 C          67.1312   94.5879    9.1879 C.3     1  UNL1        0.0174
     24 C          66.2875   95.1659   10.2853 C.3     1  UNL1        0.0187
     25 C          66.3694   94.2453   11.4667 C.3     1  UNL1        0.0721
     26 N          67.2637   93.0984   11.0995 N.3     1  UNL1       -0.2738
@<TRIPOS>BOND
     1    22    21    1
     2    22    23    1
     3    23    24    1
     4    24    25    1
     5    25    26    1
     6    26    20    1
     7    20    19    1
     8    19    18    1
     9    18    17    1
    10    17     1    1
    11     1     2   ar
    12     2     3   ar
    13     3     4   ar
    14     4     7    1
    15     7     8    2
    16     8     9    1
    17     9    10   am
    18    10    11    2
    19    10    12    1
    20    12    13    1
    21    12    14    1
    22    12    15    1
    23     4     5   ar
    24     5     6   ar
    25    26    22    1
    26     6     1   ar
    27    15     7    1
    28     9    16    1
@<TRIPOS>MOLECULE
*****
 26 28 0 0 0
SMALL
GASTEIGER

@<TRIPOS>ATOM
      1 C          63.8244   89.6178   13.4249 C.ar    1  UNL1        0.1386
      2 C          63.1929   88.8004   12.3372 C.ar    1  UNL1        0.0369
      3 C          63.1456   87.3057   12.4537 C.ar    1  UNL1        0.0043
      4 C          63.7296   86.6285   13.6580 C.ar    1  UNL1        0.0153
      5 C          64.3611   87.4459   14.7457 C.ar    1  UNL1        0.0043
      6 C          64.4084   88.9406   14.6291 C.ar    1  UNL1        0.0369
      7 C          63.6823   85.1337   13.7745 C.2     1  UNL1        0.0767
      8 N          63.9713   84.4745   15.0905 N.2     1  UNL1       -0.1836
      9 N          63.9239   82.9797   15.2070 N.am    1  UNL1       -0.2062
     10 C          63.5875   82.1442   14.0075 C.2     1  UNL1        0.2405
     11 O          63.5401   80.6495   14.1240 O.2     1  UNL1       -0.2734
     12 C          63.2985   82.8035   12.6915 C.3     1  UNL1        0.0761
     13 C          62.9512   82.9629   11.2409 C.3     1  UNL1        0.0095
     14 C          63.1305   81.3641   12.3042 C.3     1  UNL1        0.0095
     15 C          63.3459   84.2982   12.5750 C.3     1  UNL1        0.0560
     16 H          64.1136   82.5470   16.0708 H       1  UNL1        0.1772
     17 O          63.8717   91.1126   13.3083 O.3     1  UNL1       -0.4754
     18 C          65.1901   91.8116   13.1558 C.3     1  UNL1        0.2068
     19 C          65.4427   92.6841   11.9621 C.3     1  UNL1        0.0646
     20 C          66.5388   93.7074   11.9996 C.3     1  UNL1        0.0759
     21 C          68.1356   92.5193    9.4135 C.3     1  UNL1        0.0173
     22 C          67.6304   93.9230    9.5692 C.3     1  UNL1        0.0576
     23 C          67.7705   95.0271    8.5635 C.3     1  UNL1        0.0174
     24 C          67.1231   96.2556    9.1307 C.3     1  UNL1        0.0187
     25 C          66.5829   95.9108   10.4868 C.3     1  UNL1        0.0721
     26 N          66.8964   94.4692   10.7579 N.3     1  UNL1       -0.2738
@<TRIPOS>BOND
     1    22    21    1
     2    22    23    1
     3    23    24    1
     4    24    25    1
     5    25    26    1
     6    26    20    1
     7    20    19    1
     8    19    18    1
     9    18    17    1
    10    17     1    1
    11     1     2   ar
    12     2     3   ar
    13     3     4   ar
    14     4     7    1
    15     7     8    2
    16     8     9    1
    17     9    10   am
    18    10    11    2
    19    10    12    1
    20    12    13    1
    21    12    14    1
    22    12    15    1
    23     4     5   ar
    24     5     6   ar
    25    26    22    1
    26     6     1   ar
    27    15     7    1
    28     9    16    1
@<TRIPOS>MOLECULE
*****
 26 28 0 0 0
SMALL
GASTEIGER

@<TRIPOS>ATOM
      1 C          63.2627   88.1622   16.3255 C.ar    1  UNL1        0.1386
      2 C          63.0973   89.5722   16.8097 C.ar    1  UNL1        0.0369
      3 C          63.6859   90.7080   16.0264 C.ar    1  UNL1        0.0043
      4 C          64.4398   90.4338   14.7590 C.ar    1  UNL1        0.0153
      5 C          64.6052   89.0238   14.2748 C.ar    1  UNL1        0.0043
      6 C          64.0167   87.8880   15.0581 C.ar    1  UNL1        0.0369
      7 C          65.0284   91.5697   13.9757 C.2     1  UNL1        0.0767
      8 N          65.8689   92.6016   14.6674 N.2     1  UNL1       -0.1836
      9 N          66.4574   93.7375   13.8842 N.am    1  UNL1       -0.2062
     10 C          66.2054   93.8413   12.4091 C.2     1  UNL1        0.2405
     11 O          66.7939   94.9771   11.6259 O.2     1  UNL1       -0.2734
     12 C          65.3648   92.8093   11.7174 C.3     1  UNL1        0.0761
     13 C          64.6414   92.0844   10.6214 C.3     1  UNL1        0.0095
     14 C          65.7021   93.6934   10.5535 C.3     1  UNL1        0.0095
     15 C          64.7763   91.6735   12.5007 C.3     1  UNL1        0.0560
     16 H          67.0091   94.4148   14.3382 H       1  UNL1        0.1772
     17 O          62.6742   87.0263   17.1088 O.3     1  UNL1       -0.4754
     18 C          63.0960   85.6166   16.8178 C.3     1  UNL1        0.2068
     19 C          62.2503   84.7479   15.9344 C.3     1  UNL1        0.0646
     20 C          62.8253   83.4956   15.3418 C.3     1  UNL1        0.0759
     21 C          62.3568   80.6795   13.7609 C.3     1  UNL1        0.0173
     22 C          62.6226   82.0128   13.1271 C.3     1  UNL1        0.0576
     23 C          62.7198   82.2857   11.6554 C.3     1  UNL1        0.0174
     24 C          62.9952   83.7489   11.4724 C.3     1  UNL1        0.0187
     25 C          63.0682   84.3802   12.8311 C.3     1  UNL1        0.0721
     26 N          62.8380   83.3072   13.8538 N.3     1  UNL1       -0.2738
@<TRIPOS>BOND
     1    22    21    1
     2    22    23    1
     3    23    24    1
     4    24    25    1
     5    25    26    1
     6    26    20    1
     7    20    19    1
     8    19    18    1
     9    18    17    1
    10    17     1    1
    11     1     2   ar
    12     2     3   ar
    13     3     4   ar
    14     4     7    1
    15     7     8    2
    16     8     9    1
    17     9    10   am
    18    10    11    2
    19    10    12    1
    20    12    13    1
    21    12    14    1
    22    12    15    1
    23     4     5   ar
    24     5     6   ar
    25    26    22    1
    26     6     1   ar
    27    15     7    1
    28     9    16    1
@<TRIPOS>MOLECULE
*****
 26 28 0 0 0
SMALL
GASTEIGER

@<TRIPOS>ATOM
      1 C          64.0743   90.7336   13.3899 C.ar    1  UNL1        0.1386
      2 C          63.9764   89.2555   13.6259 C.ar    1  UNL1        0.0369
      3 C          63.2835   88.3804   12.6240 C.ar    1  UNL1        0.0043
      4 C          62.6885   88.9832   11.3861 C.ar    1  UNL1        0.0153
      5 C          62.7864   90.4613   11.1500 C.ar    1  UNL1        0.0043
      6 C          63.4793   91.3365   12.1520 C.ar    1  UNL1        0.0369
      7 C          61.9956   88.1080   10.3841 C.2     1  UNL1        0.0767
      8 N          62.2966   86.6393   10.3361 N.2     1  UNL1       -0.1836
      9 N          61.6036   85.7640    9.3341 N.am    1  UNL1       -0.2062
     10 C          60.6098   86.3576    8.3802 C.2     1  UNL1        0.2405
     11 O          59.9169   85.4824    7.3783 O.2     1  UNL1       -0.2734
     12 C          60.3088   87.8263    8.4282 C.3     1  UNL1        0.0761
     13 C          59.6929   89.1509    8.0871 C.3     1  UNL1        0.0095
     14 C          59.4020   87.4111    7.3078 C.3     1  UNL1        0.0095
     15 C          61.0017   88.7015    9.4302 C.3     1  UNL1        0.0560
     16 H          61.8012   84.8001    9.3026 H       1  UNL1        0.1772
     17 O          64.7672   91.6088   14.3919 O.3     1  UNL1       -0.4754
     18 C          66.2644   91.6042   14.4834 C.3     1  UNL1        0.2068
     19 C          67.0897   92.0011   13.2954 C.3     1  UNL1        0.0646
     20 C          66.6512   93.1410   12.4246 C.3     1  UNL1        0.0759
     21 C          66.4057   95.7793   10.5198 C.3     1  UNL1        0.0173
     22 C          67.0930   94.4948   10.1626 C.3     1  UNL1        0.0576
     23 C          67.7880   94.1974    8.8670 C.3     1  UNL1        0.0174
     24 C          68.3305   92.8009    8.9419 C.3     1  UNL1        0.0187
     25 C          67.9706   92.2352   10.2837 C.3     1  UNL1        0.0721
     26 N          67.2058   93.2821   11.0381 N.3     1  UNL1       -0.2738
@<TRIPOS>BOND
     1    22    21    1
     2    22    23    1
     3    23    24    1
     4    24    25    1
     5    25    26    1
     6    26    20    1
     7    20    19    1
     8    19    18    1
     9    18    17    1
    10    17     1    1
    11     1     2   ar
    12     2     3   ar
    13     3     4   ar
    14     4     7    1
    15     7     8    2
    16     8     9    1
    17     9    10   am
    18    10    11    2
    19    10    12    1
    20    12    13    1
    21    12    14    1
    22    12    15    1
    23     4     5   ar
    24     5     6   ar
    25    26    22    1
    26     6     1   ar
    27    15     7    1
    28     9    16    1
@<TRIPOS>MOLECULE
*****
 26 28 0 0 0
SMALL
GASTEIGER

@<TRIPOS>ATOM
      1 C          62.5533   88.9969   10.5824 C.ar    1  UNL1        0.1386
      2 C          63.1020   88.8301   11.9685 C.ar    1  UNL1        0.0369
      3 C          63.1215   87.4740   12.6092 C.ar    1  UNL1        0.0043
      4 C          62.5923   86.2847   11.8638 C.ar    1  UNL1        0.0153
      5 C          62.0437   86.4515   10.4778 C.ar    1  UNL1        0.0043
      6 C          62.0242   87.8076    9.8371 C.ar    1  UNL1        0.0369
      7 C          62.6119   84.9286   12.5046 C.2     1  UNL1        0.0767
      8 N          62.3760   84.7925   13.9797 N.2     1  UNL1       -0.1836
      9 N          62.3955   83.4364   14.6204 N.am    1  UNL1       -0.2062
     10 C          62.6509   82.2163   13.7861 C.2     1  UNL1        0.2405
     11 O          62.6704   80.8602   14.4268 O.2     1  UNL1       -0.2734
     12 C          62.8868   82.3524   12.3110 C.3     1  UNL1        0.0761
     13 C          63.1627   81.9715   10.8866 C.3     1  UNL1        0.0095
     14 C          63.0021   80.8639   12.4570 C.3     1  UNL1        0.0095
     15 C          62.8673   83.7085   11.6703 C.3     1  UNL1        0.0560
     16 H          62.2407   83.3471   15.5886 H       1  UNL1        0.1772
     17 O          62.5338   90.3531    9.9417 O.3     1  UNL1       -0.4754
     18 C          63.1821   91.5173   10.6302 C.3     1  UNL1        0.2068
     19 C          64.6677   91.7067   10.5452 C.3     1  UNL1        0.0646
     20 C          65.3209   92.8477   11.2672 C.3     1  UNL1        0.0759
     21 C          68.0934   92.2843    9.6408 C.3     1  UNL1        0.0173
     22 C          67.3900   93.6043    9.7536 C.3     1  UNL1        0.0576
     23 C          67.8376   94.8972    9.1386 C.3     1  UNL1        0.0174
     24 C          66.8399   95.9553    9.5061 C.3     1  UNL1        0.0187
     25 C          65.7757   95.3163   10.3482 C.3     1  UNL1        0.0721
     26 N          66.1157   93.8633   10.5012 N.3     1  UNL1       -0.2738
@<TRIPOS>BOND
     1    22    21    1
     2    22    23    1
     3    23    24    1
     4    24    25    1
     5    25    26    1
     6    26    20    1
     7    20    19    1
     8    19    18    1
     9    18    17    1
    10    17     1    1
    11     1     2   ar
    12     2     3   ar
    13     3     4   ar
    14     4     7    1
    15     7     8    2
    16     8     9    1
    17     9    10   am
    18    10    11    2
    19    10    12    1
    20    12    13    1
    21    12    14    1
    22    12    15    1
    23     4     5   ar
    24     5     6   ar
    25    26    22    1
    26     6     1   ar
    27    15     7    1
    28     9    16    1
@<TRIPOS>MOLECULE
*****
 26 28 0 0 0
SMALL
GASTEIGER

@<TRIPOS>ATOM
      1 C          61.6255   90.2958   10.7367 C.ar    1  UNL1        0.1386
      2 C          62.6106   91.1720   10.0214 C.ar    1  UNL1        0.0369
      3 C          63.8469   91.6429   10.7283 C.ar    1  UNL1        0.0043
      4 C          64.0981   91.2375   12.1505 C.ar    1  UNL1        0.0153
      5 C          63.1129   90.3613   12.8658 C.ar    1  UNL1        0.0043
      6 C          61.8766   89.8904   12.1589 C.ar    1  UNL1        0.0369
      7 C          65.3345   91.7085   12.8574 C.2     1  UNL1        0.0767
      8 N          66.5934   91.9576   12.0810 N.2     1  UNL1       -0.1836
      9 N          67.8298   92.4285   12.7879 N.am    1  UNL1       -0.2062
     10 C          67.8072   92.6503   14.2712 C.2     1  UNL1        0.2405
     11 O          69.0435   93.1212   14.9781 O.2     1  UNL1       -0.2734
     12 C          66.5482   92.4011   15.0477 C.3     1  UNL1        0.0761
     13 C          65.6047   92.3037   16.2098 C.3     1  UNL1        0.0095
     14 C          67.4569   92.8382   16.1582 C.3     1  UNL1        0.0095
     15 C          65.3119   91.9302   14.3408 C.3     1  UNL1        0.0560
     16 H          68.6561   92.5921   12.2782 H       1  UNL1        0.1772
     17 O          60.3890   89.8249   10.0298 O.3     1  UNL1       -0.4754
     18 C          60.4991   89.1533    8.6931 C.3     1  UNL1        0.2068
     19 C          59.4033   88.2466    8.2167 C.3     1  UNL1        0.0646
     20 C          59.4913   86.7697    8.4638 C.3     1  UNL1        0.0759
     21 C          61.5557   86.4071   10.9650 C.3     1  UNL1        0.0173
     22 C          61.7709   85.9126    9.5653 C.3     1  UNL1        0.0576
     23 C          62.9729   85.1646    9.0696 C.3     1  UNL1        0.0174
     24 C          62.7668   84.8689    7.6134 C.3     1  UNL1        0.0187
     25 C          61.4375   85.4342    7.2093 C.3     1  UNL1        0.0721
     26 N          60.8220   86.0793    8.4156 N.3     1  UNL1       -0.2738
@<TRIPOS>BOND
     1    22    21    1
     2    22    23    1
     3    23    24    1
     4    24    25    1
     5    25    26    1
     6    26    20    1
     7    20    19    1
     8    19    18    1
     9    18    17    1
    10    17     1    1
    11     1     2   ar
    12     2     3   ar
    13     3     4   ar
    14     4     7    1
    15     7     8    2
    16     8     9    1
    17     9    10   am
    18    10    11    2
    19    10    12    1
    20    12    13    1
    21    12    14    1
    22    12    15    1
    23     4     5   ar
    24     5     6   ar
    25    26    22    1
    26     6     1   ar
    27    15     7    1
    28     9    16    1
@<TRIPOS>MOLECULE
*****
 26 28 0 0 0
SMALL
GASTEIGER

@<TRIPOS>ATOM
      1 C          59.6015   88.6320    7.6400 C.ar    1  UNL1        0.1386
      2 C          60.4097   89.2329    8.7516 C.ar    1  UNL1        0.0369
      3 C          61.1448   88.3434    9.7099 C.ar    1  UNL1        0.0043
      4 C          61.0716   86.8530    9.5567 C.ar    1  UNL1        0.0153
      5 C          60.2633   86.2522    8.4450 C.ar    1  UNL1        0.0043
      6 C          59.5283   87.1417    7.4867 C.ar    1  UNL1        0.0369
      7 C          61.8066   85.9635   10.5151 C.2     1  UNL1        0.0767
      8 N          61.6220   86.1388   11.9933 N.2     1  UNL1       -0.1836
      9 N          62.3570   85.2493   12.9517 N.am    1  UNL1       -0.2062
     10 C          63.2768   84.1845   12.4318 C.2     1  UNL1        0.2405
     11 O          64.0119   83.2950   13.3902 O.2     1  UNL1       -0.2734
     12 C          63.4615   84.0092   10.9535 C.3     1  UNL1        0.0761
     13 C          63.9618   83.4586    9.6510 C.3     1  UNL1        0.0095
     14 C          64.3703   82.9285   11.4596 C.3     1  UNL1        0.0095
     15 C          62.7264   84.8987    9.9952 C.3     1  UNL1        0.0560
     16 H          62.2358   85.3644   13.9219 H       1  UNL1        0.1772
     17 O          58.8664   89.5216    6.6815 O.3     1  UNL1       -0.4754
     18 C          59.6207   90.2656    5.6198 C.3     1  UNL1        0.2068
     19 C          58.9501   91.3702    4.8579 C.3     1  UNL1        0.0646
     20 C          59.7417   92.5662    4.4185 C.3     1  UNL1        0.0759
     21 C          62.6998   91.5901    3.4458 C.3     1  UNL1        0.0173
     22 C          61.6376   92.1892    2.5724 C.3     1  UNL1        0.0576
     23 C          61.7486   92.4448    1.0985 C.3     1  UNL1        0.0174
     24 C          60.4575   93.0515    0.6347 C.3     1  UNL1        0.0187
     25 C          59.5486   93.1708    1.8220 C.3     1  UNL1        0.0721
     26 N          60.2779   92.6379    3.0195 N.3     1  UNL1       -0.2738
@<TRIPOS>BOND
     1    22    21    1
     2    22    23    1
     3    23    24    1
     4    24    25    1
     5    25    26    1
     6    26    20    1
     7    20    19    1
     8    19    18    1
     9    18    17    1
    10    17     1    1
    11     1     2   ar
    12     2     3   ar
    13     3     4   ar
    14     4     7    1
    15     7     8    2
    16     8     9    1
    17     9    10   am
    18    10    11    2
    19    10    12    1
    20    12    13    1
    21    12    14    1
    22    12    15    1
    23     4     5   ar
    24     5     6   ar
    25    26    22    1
    26     6     1   ar
    27    15     7    1
    28     9    16    1
@<TRIPOS>MOLECULE
*****
 26 28 0 0 0
SMALL
GASTEIGER

@<TRIPOS>ATOM
      1 C          62.3981   89.6357   10.6276 C.ar    1  UNL1        0.1386
      2 C          63.0985   90.9295   10.3353 C.ar    1  UNL1        0.0369
      3 C          64.0023   91.5420   11.3639 C.ar    1  UNL1        0.0043
      4 C          64.2055   90.8607   12.6848 C.ar    1  UNL1        0.0153
      5 C          63.5050   89.5670   12.9770 C.ar    1  UNL1        0.0043
      6 C          62.6013   88.9545   11.9484 C.ar    1  UNL1        0.0369
      7 C          65.1093   91.4733   13.7134 C.2     1  UNL1        0.0767
      8 N          64.5496   91.9258   15.0294 N.2     1  UNL1       -0.1836
      9 N          65.4534   92.5384   16.0580 N.am    1  UNL1       -0.2062
     10 C          66.9168   92.6985   15.7705 C.2     1  UNL1        0.2405
     11 O          67.8206   93.3111   16.7991 O.2     1  UNL1       -0.2734
     12 C          67.4765   92.2460   14.4544 C.3     1  UNL1        0.0761
     13 C          68.4699   91.9734   13.3640 C.3     1  UNL1        0.0095
     14 C          68.7253   92.7639   15.1043 C.3     1  UNL1        0.0095
     15 C          66.5727   91.6335   13.4259 C.3     1  UNL1        0.0560
     16 H          65.0860   92.8354   16.9218 H       1  UNL1        0.1772
     17 O          61.4943   89.0231    9.5989 O.3     1  UNL1       -0.4754
     18 C          60.7749   87.7419    9.9003 C.3     1  UNL1        0.2068
     19 C          61.4923   86.4308    9.7721 C.3     1  UNL1        0.0646
     20 C          61.6530   85.5433   10.9706 C.3     1  UNL1        0.0759
     21 C          62.8834   84.1135   13.6335 C.3     1  UNL1        0.0173
     22 C          63.2973   83.8442   12.2171 C.3     1  UNL1        0.0576
     23 C          64.3495   82.8703   11.7761 C.3     1  UNL1        0.0174
     24 C          64.4342   82.9256   10.2795 C.3     1  UNL1        0.0187
     25 C          63.4343   83.9337    9.7956 C.3     1  UNL1        0.0721
     26 N          62.7317   84.5014   10.9931 N.3     1  UNL1       -0.2738
@<TRIPOS>BOND
     1    22    21    1
     2    22    23    1
     3    23    24    1
     4    24    25    1
     5    25    26    1
     6    26    20    1
     7    20    19    1
     8    19    18    1
     9    18    17    1
    10    17     1    1
    11     1     2   ar
    12     2     3   ar
    13     3     4   ar
    14     4     7    1
    15     7     8    2
    16     8     9    1
    17     9    10   am
    18    10    11    2
    19    10    12    1
    20    12    13    1
    21    12    14    1
    22    12    15    1
    23     4     5   ar
    24     5     6   ar
    25    26    22    1
    26     6     1   ar
    27    15     7    1
    28     9    16    1
@<TRIPOS>MOLECULE
*****
 26 28 0 0 0
SMALL
GASTEIGER

@<TRIPOS>ATOM
      1 C          63.3751   87.1032   16.2828 C.ar    1  UNL1        0.1386
      2 C          64.1496   86.9059   15.0134 C.ar    1  UNL1        0.0369
      3 C          64.0368   85.6144   14.2591 C.ar    1  UNL1        0.0043
      4 C          63.1495   84.5200   14.7741 C.ar    1  UNL1        0.0153
      5 C          62.3751   84.7173   16.0434 C.ar    1  UNL1        0.0043
      6 C          62.4879   86.0088   16.7977 C.ar    1  UNL1        0.0369
      7 C          63.0367   83.2284   14.0196 C.2     1  UNL1        0.0767
      8 N          62.6105   81.9788   14.7315 N.2     1  UNL1       -0.1836
      9 N          62.4978   80.6872   13.9771 N.am    1  UNL1       -0.2062
     10 C          62.8112   80.6453   12.5108 C.2     1  UNL1        0.2405
     11 O          62.6984   79.3538   11.7563 O.2     1  UNL1       -0.2734
     12 C          63.2374   81.8950   11.7989 C.3     1  UNL1        0.0761
     13 C          63.6775   82.8060   10.6914 C.3     1  UNL1        0.0095
     14 C          63.2775   80.9198   10.6598 C.3     1  UNL1        0.0095
     15 C          63.3502   83.1865   12.5533 C.3     1  UNL1        0.0560
     16 H          62.2180   79.8670   14.4443 H       1  UNL1        0.1772
     17 O          63.4879   88.3948   17.0372 O.3     1  UNL1       -0.4754
     18 C          62.9412   89.6596   16.4446 C.3     1  UNL1        0.2068
     19 C          63.8761   90.7468   16.0041 C.3     1  UNL1        0.0646
     20 C          64.7628   90.5364   14.8127 C.3     1  UNL1        0.0759
     21 C          66.8701   92.7139   16.0238 C.3     1  UNL1        0.0173
     22 C          66.2971   92.7181   14.6376 C.3     1  UNL1        0.0576
     23 C          66.5922   93.7240   13.5647 C.3     1  UNL1        0.0174
     24 C          65.8059   93.3447   12.3448 C.3     1  UNL1        0.0187
     25 C          65.0249   92.1044   12.6639 C.3     1  UNL1        0.0721
     26 N          65.3285   91.7172   14.0809 N.3     1  UNL1       -0.2738
@<TRIPOS>BOND
     1    22    21    1
     2    22    23    1
     3    23    24    1
     4    24    25    1
     5    25    26    1
     6    26    20    1
     7    20    19    1
     8    19    18    1
     9    18    17    1
    10    17     1    1
    11     1     2   ar
    12     2     3   ar
    13     3     4   ar
    14     4     7    1
    15     7     8    2
    16     8     9    1
    17     9    10   am
    18    10    11    2
    19    10    12    1
    20    12    13    1
    21    12    14    1
    22    12    15    1
    23     4     5   ar
    24     5     6   ar
    25    26    22    1
    26     6     1   ar
    27    15     7    1
    28     9    16    1
