@<TRIPOS>MOLECULE
*****
 33 36 0 0 0
SMALL
GASTEIGER

@<TRIPOS>ATOM
      1 C          60.9035   88.1927   10.1248 C.ar    1  UNL1        0.1399
      2 C          59.8147   88.1005    9.0971 C.ar    1  UNL1        0.0554
      3 C          59.8391   87.0030    8.0750 C.ar    1  UNL1        0.1047
      4 N          60.9524   85.9977    8.0803 N.ar    1  UNL1       -0.2119
      5 C          62.0412   86.0899    9.1079 C.ar    1  UNL1        0.2218
      6 N          62.0168   87.1874   10.1302 N.ar    1  UNL1       -0.1983
      7 N          60.8791   89.2902   11.1469 N.pl3   1  UNL1       -0.2705
      8 C          59.6389   89.5359   11.9541 C.3     1  UNL1        0.1187
      9 C          66.8866   92.8929   14.6900 C.3     1  UNL1        0.0718
     10 C          65.8364   92.3352   13.7757 C.ar    1  UNL1        0.1208
     11 N          64.7235   91.4106   14.1715 N.ar    1  UNL1       -0.2309
     12 C          63.9139   91.1081   12.9455 C.ar    1  UNL1        0.0996
     13 C          62.6982   90.2562   12.7305 C.ar    1  UNL1        0.0355
     14 C          62.0949   90.1421   11.3620 C.ar    1  UNL1        0.0543
     15 C          62.7073   90.8798   10.2084 C.ar    1  UNL1        0.0164
     16 C          63.9231   91.7317   10.4234 C.ar    1  UNL1        0.0200
     17 C          64.5264   91.8458   11.7920 C.ar    1  UNL1        0.0787
     18 N          65.7145   92.6042   12.3051 N.ar    1  UNL1       -0.3129
     19 C          66.6215   93.4781   11.4905 C.3     1  UNL1        0.1316
     20 N          63.1544   85.0846    9.1133 N.pl3   1  UNL1       -0.2825
     21 H          63.7465   85.0016    8.3311 H       1  UNL1        0.1551
     22 C          63.3657   84.2059   10.3104 C.ar    1  UNL1        0.0518
     23 C          64.0421   82.8762   10.1546 C.ar    1  UNL1        0.0148
     24 C          64.2534   81.9973   11.3518 C.ar    1  UNL1        0.0026
     25 C          63.7881   82.4482   12.7046 C.ar    1  UNL1        0.0200
     26 C          63.1116   83.7780   12.8603 C.ar    1  UNL1        0.1229
     27 C          62.9004   84.6568   11.6632 C.ar    1  UNL1        0.0346
     28 S          62.6463   84.2289   14.2132 S.O2    1  UNL1        0.0572
     29 N          62.1811   84.6798   15.5661 N.3     1  UNL1       -0.2035
     30 O          63.1130   85.6217   13.9095 O.2     1  UNL1       -0.1532
     31 O          62.1797   82.8361   14.5169 O.2     1  UNL1       -0.1532
     32 H          62.3748   85.6750   15.6780 H       1  UNL1        0.1442
     33 H          62.6742   84.1542   16.2878 H       1  UNL1        0.1442
@<TRIPOS>BOND
     1     9    10    1
     2    10    11   ar
     3    11    12   ar
     4    12    13   ar
     5    13    14   ar
     6    14     7    1
     7     7     8    1
     8     7     1    1
     9     1     2   ar
    10     2     3   ar
    11     3     4   ar
    12     4     5   ar
    13     5    20    1
    14    20    22    1
    15    22    23   ar
    16    23    24   ar
    17    24    25   ar
    18    25    26   ar
    19    26    28    1
    20    28    29    1
    21    28    30    2
    22    28    31    2
    23    26    27   ar
    24     5     6   ar
    25    14    15   ar
    26    15    16   ar
    27    16    17   ar
    28    17    18   ar
    29    18    19    1
    30    18    10   ar
    31    17    12   ar
    32     6     1   ar
    33    27    22   ar
    34    20    21    1
    35    29    32    1
    36    29    33    1
@<TRIPOS>MOLECULE
*****
 33 36 0 0 0
SMALL
GASTEIGER

@<TRIPOS>ATOM
      1 C          63.7390   88.7735   14.6366 C.ar    1  UNL1        0.1399
      2 C          63.1390   89.2827   15.9137 C.ar    1  UNL1        0.0554
      3 C          63.0245   88.3754   17.1026 C.ar    1  UNL1        0.1047
      4 N          63.5098   86.9588   17.0145 N.ar    1  UNL1       -0.2119
      5 C          64.1096   86.4495   15.7375 C.ar    1  UNL1        0.2218
      6 N          64.2243   87.3569   14.5485 N.ar    1  UNL1       -0.1983
      7 N          63.8535   89.6808   13.4477 N.pl3   1  UNL1       -0.2705
      8 C          64.8159   90.8312   13.4721 C.3     1  UNL1        0.1187
      9 C          60.0304   85.9638    7.6866 C.3     1  UNL1        0.0718
     10 C          60.6553   86.9127    8.6658 C.ar    1  UNL1        0.1208
     11 N          61.5186   86.5339    9.8325 N.ar    1  UNL1       -0.2309
     12 C          61.9235   87.7942   10.5381 C.ar    1  UNL1        0.0996
     13 C          62.7712   88.0371   11.7515 C.ar    1  UNL1        0.0355
     14 C          63.0058   89.4378   12.2343 C.ar    1  UNL1        0.0543
     15 C          62.3926   90.5955   11.5037 C.ar    1  UNL1        0.0164
     16 C          61.5449   90.3525   10.2903 C.ar    1  UNL1        0.0200
     17 C          61.3103   88.9519    9.8075 C.ar    1  UNL1        0.0787
     18 N          60.5265   88.4071    8.6504 N.ar    1  UNL1       -0.3129
     19 C          59.7503   89.2149    7.6530 C.3     1  UNL1        0.1316
     20 N          64.5949   85.0329   15.6495 N.pl3   1  UNL1       -0.2825
     21 H          65.4000   84.7567   16.1444 H       1  UNL1        0.1551
     22 C          63.8537   84.0372   14.8074 C.ar    1  UNL1        0.0518
     23 C          62.6479   83.3373   15.3606 C.ar    1  UNL1        0.0148
     24 C          61.9066   82.3415   14.5185 C.ar    1  UNL1        0.0026
     25 C          62.3713   82.0457   13.1233 C.ar    1  UNL1        0.0200
     26 C          63.5772   82.7456   12.5702 C.ar    1  UNL1        0.1229
     27 C          64.3184   83.7414   13.4122 C.ar    1  UNL1        0.0346
     28 S          64.0418   82.4498   11.1750 S.O2    1  UNL1        0.0572
     29 N          64.5065   82.1540    9.7798 N.3     1  UNL1       -0.2035
     30 O          63.0447   81.3332   11.0797 O.2     1  UNL1       -0.1532
     31 O          65.0389   83.5664   11.2703 O.2     1  UNL1       -0.1532
     32 H          63.9725   81.3711    9.4024 H       1  UNL1        0.1442
     33 H          65.4976   81.9135    9.7953 H       1  UNL1        0.1442
@<TRIPOS>BOND
     1     9    10    1
     2    10    11   ar
     3    11    12   ar
     4    12    13   ar
     5    13    14   ar
     6    14     7    1
     7     7     8    1
     8     7     1    1
     9     1     2   ar
    10     2     3   ar
    11     3     4   ar
    12     4     5   ar
    13     5    20    1
    14    20    22    1
    15    22    23   ar
    16    23    24   ar
    17    24    25   ar
    18    25    26   ar
    19    26    28    1
    20    28    29    1
    21    28    30    2
    22    28    31    2
    23    26    27   ar
    24     5     6   ar
    25    14    15   ar
    26    15    16   ar
    27    16    17   ar
    28    17    18   ar
    29    18    19    1
    30    18    10   ar
    31    17    12   ar
    32     6     1   ar
    33    27    22   ar
    34    20    21    1
    35    29    32    1
    36    29    33    1
@<TRIPOS>MOLECULE
*****
 33 36 0 0 0
SMALL
GASTEIGER

@<TRIPOS>ATOM
      1 C          60.8819   88.1651   10.2609 C.ar    1  UNL1        0.1399
      2 C          59.8245   88.1451    9.1971 C.ar    1  UNL1        0.0554
      3 C          59.8659   87.1042    8.1179 C.ar    1  UNL1        0.1047
      4 N          60.9647   86.0832    8.1025 N.ar    1  UNL1       -0.2119
      5 C          62.0221   86.1032    9.1662 C.ar    1  UNL1        0.2218
      6 N          61.9807   87.1442   10.2454 N.ar    1  UNL1       -0.1983
      7 N          60.8404   89.2061   11.3401 N.pl3   1  UNL1       -0.2705
      8 C          59.5613   89.4717   12.0772 C.3     1  UNL1        0.1187
      9 C          66.9315   94.1188   10.7172 C.3     1  UNL1        0.0718
     10 C          65.8696   93.1314   11.1011 C.ar    1  UNL1        0.1208
     11 N          64.7308   92.6800   10.2353 N.ar    1  UNL1       -0.2309
     12 C          63.9174   91.6917   11.0173 C.ar    1  UNL1        0.0996
     13 C          62.6798   90.9163   10.6751 C.ar    1  UNL1        0.0355
     14 C          62.0781   89.9815   11.6821 C.ar    1  UNL1        0.0543
     15 C          62.7141   89.8220   13.0312 C.ar    1  UNL1        0.0164
     16 C          63.9518   90.5973   13.3733 C.ar    1  UNL1        0.0200
     17 C          64.5534   91.5322   12.3664 C.ar    1  UNL1        0.0787
     18 N          65.7599   92.4220   12.4181 N.ar    1  UNL1       -0.3129
     19 C          66.6929   92.5754   13.5826 C.3     1  UNL1        0.1316
     20 N          63.1209   85.0822    9.1507 N.pl3   1  UNL1       -0.2825
     21 H          63.6720   84.9643    8.3434 H       1  UNL1        0.1551
     22 C          63.3801   84.2409   10.3652 C.ar    1  UNL1        0.0518
     23 C          64.1350   82.9511   10.2368 C.ar    1  UNL1        0.0148
     24 C          64.3942   82.1097   11.4513 C.ar    1  UNL1        0.0026
     25 C          63.8986   82.5582   12.7941 C.ar    1  UNL1        0.0200
     26 C          63.1437   83.8481   12.9224 C.ar    1  UNL1        0.1229
     27 C          62.8845   84.6894   11.7080 C.ar    1  UNL1        0.0346
     28 S          62.6480   84.2966   14.2653 S.O2    1  UNL1        0.0572
     29 N          62.1524   84.7450   15.6081 N.3     1  UNL1       -0.2035
     30 O          62.0828   82.9294   14.5132 O.2     1  UNL1       -0.1532
     31 O          63.2132   85.6637   14.0173 O.2     1  UNL1       -0.1532
     32 H          61.6776   83.9702   16.0714 H       1  UNL1        0.1442
     33 H          61.5005   85.5204   15.4883 H       1  UNL1        0.1442
@<TRIPOS>BOND
     1     9    10    1
     2    10    11   ar
     3    11    12   ar
     4    12    13   ar
     5    13    14   ar
     6    14     7    1
     7     7     8    1
     8     7     1    1
     9     1     2   ar
    10     2     3   ar
    11     3     4   ar
    12     4     5   ar
    13     5    20    1
    14    20    22    1
    15    22    23   ar
    16    23    24   ar
    17    24    25   ar
    18    25    26   ar
    19    26    28    1
    20    28    29    1
    21    28    30    2
    22    28    31    2
    23    26    27   ar
    24     5     6   ar
    25    14    15   ar
    26    15    16   ar
    27    16    17   ar
    28    17    18   ar
    29    18    19    1
    30    18    10   ar
    31    17    12   ar
    32     6     1   ar
    33    27    22   ar
    34    20    21    1
    35    29    32    1
    36    29    33    1
@<TRIPOS>MOLECULE
*****
 33 36 0 0 0
SMALL
GASTEIGER

@<TRIPOS>ATOM
      1 C          60.8986   88.5275   10.0508 C.ar    1  UNL1        0.1399
      2 C          59.9327   88.3491    8.9171 C.ar    1  UNL1        0.0554
      3 C          59.9391   87.0791    8.1191 C.ar    1  UNL1        0.1047
      4 N          60.9113   85.9873    8.4548 N.ar    1  UNL1       -0.2119
      5 C          61.8772   86.1656    9.5884 C.ar    1  UNL1        0.2218
      6 N          61.8709   87.4357   10.3865 N.ar    1  UNL1       -0.1983
      7 N          60.8922   89.7975   10.8488 N.pl3   1  UNL1       -0.2705
      8 C          59.5901   90.4363   11.2315 C.3     1  UNL1        0.1187
      9 C          67.0811   91.8600   15.2155 C.3     1  UNL1        0.0718
     10 C          66.0245   91.6251   14.1769 C.ar    1  UNL1        0.1208
     11 N          64.7874   90.7946   14.3498 N.ar    1  UNL1       -0.2309
     12 C          64.0179   90.8357   13.0629 C.ar    1  UNL1        0.0996
     13 C          62.7222   90.2044   12.6476 C.ar    1  UNL1        0.0355
     14 C          62.1880   90.4289   11.2641 C.ar    1  UNL1        0.0543
     15 C          62.9495   91.2848   10.2959 C.ar    1  UNL1        0.0164
     16 C          64.2452   91.9162   10.7111 C.ar    1  UNL1        0.0200
     17 C          64.7794   91.6916   12.0946 C.ar    1  UNL1        0.0787
     18 N          66.0196   92.1795   12.7831 N.ar    1  UNL1       -0.3129
     19 C          67.0703   93.0661   12.1832 C.3     1  UNL1        0.1316
     20 N          62.8495   85.0738    9.9241 N.pl3   1  UNL1       -0.2825
     21 H          63.4581   84.7268    9.2324 H       1  UNL1        0.1551
     22 C          62.8945   84.5106   11.3136 C.ar    1  UNL1        0.0518
     23 C          63.1553   85.4152   12.4814 C.ar    1  UNL1        0.0148
     24 C          63.2003   84.8521   13.8710 C.ar    1  UNL1        0.0026
     25 C          62.9845   83.3843   14.0927 C.ar    1  UNL1        0.0200
     26 C          62.7238   82.4797   12.9249 C.ar    1  UNL1        0.1229
     27 C          62.6788   83.0429   11.5354 C.ar    1  UNL1        0.0346
     28 S          62.5081   81.0120   13.1467 S.O2    1  UNL1        0.0572
     29 N          62.2923   79.5442   13.3684 N.3     1  UNL1       -0.2035
     30 O          62.1744   81.2783   14.5846 O.2     1  UNL1       -0.1532
     31 O          62.8417   80.7457   11.7087 O.2     1  UNL1       -0.1532
     32 H          62.0295   79.3823   14.3406 H       1  UNL1        0.1442
     33 H          63.1535   79.0387   13.1603 H       1  UNL1        0.1442
@<TRIPOS>BOND
     1     9    10    1
     2    10    11   ar
     3    11    12   ar
     4    12    13   ar
     5    13    14   ar
     6    14     7    1
     7     7     8    1
     8     7     1    1
     9     1     2   ar
    10     2     3   ar
    11     3     4   ar
    12     4     5   ar
    13     5    20    1
    14    20    22    1
    15    22    23   ar
    16    23    24   ar
    17    24    25   ar
    18    25    26   ar
    19    26    28    1
    20    28    29    1
    21    28    30    2
    22    28    31    2
    23    26    27   ar
    24     5     6   ar
    25    14    15   ar
    26    15    16   ar
    27    16    17   ar
    28    17    18   ar
    29    18    19    1
    30    18    10   ar
    31    17    12   ar
    32     6     1   ar
    33    27    22   ar
    34    20    21    1
    35    29    32    1
    36    29    33    1
@<TRIPOS>MOLECULE
*****
 33 36 0 0 0
SMALL
GASTEIGER

@<TRIPOS>ATOM
      1 C          63.5582   85.6471   14.8982 C.ar    1  UNL1        0.1399
      2 C          62.8080   85.1325   16.0908 C.ar    1  UNL1        0.0554
      3 C          62.4206   86.0706   17.1952 C.ar    1  UNL1        0.1047
      4 N          62.7834   87.5234   17.1071 N.ar    1  UNL1       -0.2119
      5 C          63.5336   88.0380   15.9145 C.ar    1  UNL1        0.2218
      6 N          63.9210   87.0999   14.8100 N.ar    1  UNL1       -0.1983
      7 N          63.9456   84.7090   13.7937 N.pl3   1  UNL1       -0.2705
      8 C          64.8952   83.5804   14.0668 C.3     1  UNL1        0.1187
      9 C          59.5836   87.4479    7.8696 C.3     1  UNL1        0.0718
     10 C          60.5345   86.7553    8.8003 C.ar    1  UNL1        0.1208
     11 N          60.6707   87.0106   10.2722 N.ar    1  UNL1       -0.2309
     12 C          61.7365   86.0990   10.8041 C.ar    1  UNL1        0.0996
     13 C          62.2986   85.9086   12.1817 C.ar    1  UNL1        0.0355
     14 C          63.3833   84.8994   12.4161 C.ar    1  UNL1        0.0543
     15 C          63.9059   84.0807   11.2730 C.ar    1  UNL1        0.0164
     16 C          63.3437   84.2711    9.8955 C.ar    1  UNL1        0.0200
     17 C          62.2590   85.2802    9.6610 C.ar    1  UNL1        0.0787
     18 N          61.5161   85.6859    8.4227 N.ar    1  UNL1       -0.3129
     19 C          61.7193   85.1212    7.0479 C.3     1  UNL1        0.1316
     20 N          63.8965   89.4908   15.8264 N.pl3   1  UNL1       -0.2825
     21 H          64.0613   90.0077   16.6479 H       1  UNL1        0.1551
     22 C          64.0081   90.1560   14.4867 C.ar    1  UNL1        0.0518
     23 C          65.1927   91.0220   14.1757 C.ar    1  UNL1        0.0148
     24 C          65.3044   91.6873   12.8359 C.ar    1  UNL1        0.0026
     25 C          64.2315   91.4865   11.8071 C.ar    1  UNL1        0.0200
     26 C          63.0468   90.6205   12.1181 C.ar    1  UNL1        0.1229
     27 C          62.9352   89.9553   13.4578 C.ar    1  UNL1        0.0346
     28 S          61.9739   90.4197   11.0893 S.O2    1  UNL1        0.0572
     29 N          60.9009   90.2189   10.0605 N.3     1  UNL1       -0.2035
     30 O          62.8132   91.1371   10.0740 O.2     1  UNL1       -0.1532
     31 O          61.1346   89.7023   12.1046 O.2     1  UNL1       -0.1532
     32 H          61.1958   90.6333    9.1763 H       1  UNL1        0.1442
     33 H          60.0400   90.6663   10.3753 H       1  UNL1        0.1442
@<TRIPOS>BOND
     1     9    10    1
     2    10    11   ar
     3    11    12   ar
     4    12    13   ar
     5    13    14   ar
     6    14     7    1
     7     7     8    1
     8     7     1    1
     9     1     2   ar
    10     2     3   ar
    11     3     4   ar
    12     4     5   ar
    13     5    20    1
    14    20    22    1
    15    22    23   ar
    16    23    24   ar
    17    24    25   ar
    18    25    26   ar
    19    26    28    1
    20    28    29    1
    21    28    30    2
    22    28    31    2
    23    26    27   ar
    24     5     6   ar
    25    14    15   ar
    26    15    16   ar
    27    16    17   ar
    28    17    18   ar
    29    18    19    1
    30    18    10   ar
    31    17    12   ar
    32     6     1   ar
    33    27    22   ar
    34    20    21    1
    35    29    32    1
    36    29    33    1
@<TRIPOS>MOLECULE
*****
 33 36 0 0 0
SMALL
GASTEIGER

@<TRIPOS>ATOM
      1 C          63.7633   88.4615   14.7684 C.ar    1  UNL1        0.1399
      2 C          63.1532   88.9011   16.0663 C.ar    1  UNL1        0.0554
      3 C          63.0285   87.9306   17.2032 C.ar    1  UNL1        0.1047
      4 N          63.5141   86.5205   17.0423 N.ar    1  UNL1       -0.2119
      5 C          64.1242   86.0809   15.7445 C.ar    1  UNL1        0.2218
      6 N          64.2489   87.0514   14.6075 N.ar    1  UNL1       -0.1983
      7 N          63.8880   89.4320   13.6315 N.pl3   1  UNL1       -0.2705
      8 C          64.8471   90.5812   13.7281 C.3     1  UNL1        0.1187
      9 C          60.0243   86.0148    7.7139 C.3     1  UNL1        0.0718
     10 C          60.6689   86.9134    8.7273 C.ar    1  UNL1        0.1208
     11 N          61.4948   86.4716    9.8989 N.ar    1  UNL1       -0.2309
     12 C          61.9371   87.6968   10.6427 C.ar    1  UNL1        0.0996
     13 C          62.7715   87.8754   11.8763 C.ar    1  UNL1        0.0355
     14 C          63.0535   89.2532   12.3979 C.ar    1  UNL1        0.0543
     15 C          62.5009   90.4524   11.6860 C.ar    1  UNL1        0.0164
     16 C          61.6665   90.2737   10.4525 C.ar    1  UNL1        0.0200
     17 C          61.3845   88.8959    9.9308 C.ar    1  UNL1        0.0787
     18 N          60.6008   88.4118    8.7470 N.ar    1  UNL1       -0.3129
     19 C          59.8761   89.2745    7.7568 C.3     1  UNL1        0.1316
     20 N          64.6098   84.6708   15.5836 N.pl3   1  UNL1       -0.2825
     21 H          65.2371   84.2884   16.2389 H       1  UNL1        0.1551
     22 C          64.1395   83.8434   14.4242 C.ar    1  UNL1        0.0518
     23 C          64.6669   84.1145   13.0464 C.ar    1  UNL1        0.0148
     24 C          64.1967   83.2871   11.8870 C.ar    1  UNL1        0.0026
     25 C          63.1990   82.1885   12.1054 C.ar    1  UNL1        0.0200
     26 C          62.6716   81.9173   13.4832 C.ar    1  UNL1        0.1229
     27 C          63.1418   82.7448   14.6426 C.ar    1  UNL1        0.0346
     28 S          61.6739   80.8187   13.7016 S.O2    1  UNL1        0.0572
     29 N          60.6762   79.7201   13.9200 N.3     1  UNL1       -0.2035
     30 O          60.9025   81.7047   14.6343 O.2     1  UNL1       -0.1532
     31 O          62.4452   79.9328   12.7688 O.2     1  UNL1       -0.1532
     32 H          59.9555   80.0391   14.5675 H       1  UNL1        0.1442
     33 H          61.1482   78.9050   14.3113 H       1  UNL1        0.1442
@<TRIPOS>BOND
     1     9    10    1
     2    10    11   ar
     3    11    12   ar
     4    12    13   ar
     5    13    14   ar
     6    14     7    1
     7     7     8    1
     8     7     1    1
     9     1     2   ar
    10     2     3   ar
    11     3     4   ar
    12     4     5   ar
    13     5    20    1
    14    20    22    1
    15    22    23   ar
    16    23    24   ar
    17    24    25   ar
    18    25    26   ar
    19    26    28    1
    20    28    29    1
    21    28    30    2
    22    28    31    2
    23    26    27   ar
    24     5     6   ar
    25    14    15   ar
    26    15    16   ar
    27    16    17   ar
    28    17    18   ar
    29    18    19    1
    30    18    10   ar
    31    17    12   ar
    32     6     1   ar
    33    27    22   ar
    34    20    21    1
    35    29    32    1
    36    29    33    1
@<TRIPOS>MOLECULE
*****
 33 36 0 0 0
SMALL
GASTEIGER

@<TRIPOS>ATOM
      1 C          63.5169   85.6926   15.0391 C.ar    1  UNL1        0.1399
      2 C          62.8101   85.3393   16.3141 C.ar    1  UNL1        0.0554
      3 C          62.5294   86.4015   17.3352 C.ar    1  UNL1        0.1047
      4 N          62.9555   87.8172   17.0814 N.ar    1  UNL1       -0.2119
      5 C          63.6623   88.1705   15.8064 C.ar    1  UNL1        0.2218
      6 N          63.9430   87.1082   14.7852 N.ar    1  UNL1       -0.1983
      7 N          63.7976   84.6303   14.0180 N.pl3   1  UNL1       -0.2705
      8 C          64.5391   83.3876   14.4129 C.3     1  UNL1        0.1187
      9 C          59.8014   87.2462    7.7882 C.3     1  UNL1        0.0718
     10 C          60.7045   86.5838    8.7861 C.ar    1  UNL1        0.1208
     11 N          60.7153   86.8308   10.2655 N.ar    1  UNL1       -0.2309
     12 C          61.7728   85.9578   10.8735 C.ar    1  UNL1        0.0996
     13 C          62.2334   85.7775   12.2896 C.ar    1  UNL1        0.0355
     14 C          63.3369   84.8107   12.6019 C.ar    1  UNL1        0.0543
     15 C          63.9797   84.0242   11.4981 C.ar    1  UNL1        0.0164
     16 C          63.5191   84.2046   10.0821 C.ar    1  UNL1        0.0200
     17 C          62.4156   85.1714    9.7698 C.ar    1  UNL1        0.0787
     18 N          61.7553   85.5583    8.4797 N.ar    1  UNL1       -0.3129
     19 C          62.0877   85.0150    7.1216 C.3     1  UNL1        0.1316
     20 N          64.0884   89.5861   15.5526 N.pl3   1  UNL1       -0.2825
     21 H          64.4079   90.1451   16.2974 H       1  UNL1        0.1551
     22 C          64.0278   90.1501   14.1640 C.ar    1  UNL1        0.0518
     23 C          63.0538   89.5914   13.1695 C.ar    1  UNL1        0.0148
     24 C          62.9932   90.1553   11.7808 C.ar    1  UNL1        0.0026
     25 C          63.9066   91.2780   11.3867 C.ar    1  UNL1        0.0200
     26 C          64.8806   91.8367   12.3813 C.ar    1  UNL1        0.1229
     27 C          64.9412   91.2728   13.7699 C.ar    1  UNL1        0.0346
     28 S          65.7940   92.9594   11.9873 S.O2    1  UNL1        0.0572
     29 N          66.7074   94.0821   11.5932 N.3     1  UNL1       -0.2035
     30 O          65.7137   92.5219   10.5547 O.2     1  UNL1       -0.1532
     31 O          65.8743   93.3969   13.4198 O.2     1  UNL1       -0.1532
     32 H          66.8630   94.0561   10.5854 H       1  UNL1        0.1442
     33 H          67.5993   93.9808   12.0776 H       1  UNL1        0.1442
@<TRIPOS>BOND
     1     9    10    1
     2    10    11   ar
     3    11    12   ar
     4    12    13   ar
     5    13    14   ar
     6    14     7    1
     7     7     8    1
     8     7     1    1
     9     1     2   ar
    10     2     3   ar
    11     3     4   ar
    12     4     5   ar
    13     5    20    1
    14    20    22    1
    15    22    23   ar
    16    23    24   ar
    17    24    25   ar
    18    25    26   ar
    19    26    28    1
    20    28    29    1
    21    28    30    2
    22    28    31    2
    23    26    27   ar
    24     5     6   ar
    25    14    15   ar
    26    15    16   ar
    27    16    17   ar
    28    17    18   ar
    29    18    19    1
    30    18    10   ar
    31    17    12   ar
    32     6     1   ar
    33    27    22   ar
    34    20    21    1
    35    29    32    1
    36    29    33    1
@<TRIPOS>MOLECULE
*****
 33 36 0 0 0
SMALL
GASTEIGER

@<TRIPOS>ATOM
      1 C          65.1881   91.9019   13.1612 C.ar    1  UNL1        0.1399
      2 C          66.3700   92.6046   12.5618 C.ar    1  UNL1        0.0554
      3 C          66.3994   92.9025   11.0920 C.ar    1  UNL1        0.1047
      4 N          65.2467   92.4978   10.2215 N.ar    1  UNL1       -0.2119
      5 C          64.0648   91.7951   10.8209 C.ar    1  UNL1        0.2218
      6 N          64.0354   91.4971   12.2907 N.ar    1  UNL1       -0.1983
      7 N          65.1587   91.6039   14.6310 N.pl3   1  UNL1       -0.2705
      8 C          65.6985   92.6041   15.6099 C.3     1  UNL1        0.1187
      9 C          63.6068   83.9318   15.2259 C.3     1  UNL1        0.0718
     10 C          63.7283   85.4226   15.3395 C.ar    1  UNL1        0.1208
     11 N          64.5502   86.3103   14.4528 N.ar    1  UNL1       -0.2309
     12 C          64.3792   87.7237   14.9251 C.ar    1  UNL1        0.0996
     13 C          64.9482   89.0218   14.4342 C.ar    1  UNL1        0.0355
     14 C          64.5896   90.3057   15.1219 C.ar    1  UNL1        0.0543
     15 C          63.6620   90.2915   16.3005 C.ar    1  UNL1        0.0164
     16 C          63.0929   88.9934   16.7915 C.ar    1  UNL1        0.0200
     17 C          63.4515   87.7095   16.1037 C.ar    1  UNL1        0.0787
     18 N          63.0493   86.2873   16.3599 N.ar    1  UNL1       -0.3129
     19 C          62.1294   85.8132   17.4457 C.3     1  UNL1        0.1316
     20 N          62.9122   91.3904    9.9504 N.pl3   1  UNL1       -0.2825
     21 H          62.7505   91.8577    9.0991 H       1  UNL1        0.1551
     22 C          62.0060   90.2739   10.3770 C.ar    1  UNL1        0.0518
     23 C          60.6372   90.5803   10.9084 C.ar    1  UNL1        0.0148
     24 C          59.7309   89.4637   11.3351 C.ar    1  UNL1        0.0026
     25 C          60.1936   88.0407   11.2303 C.ar    1  UNL1        0.0200
     26 C          61.5625   87.7343   10.6989 C.ar    1  UNL1        0.1229
     27 C          62.4686   88.8508   10.2723 C.ar    1  UNL1        0.0346
     28 S          62.0251   86.3112   10.5942 S.O2    1  UNL1        0.0572
     29 N          62.4877   84.8882   10.4894 N.3     1  UNL1       -0.2035
     30 O          61.6725   86.0905   12.0354 O.2     1  UNL1       -0.1532
     31 O          62.3777   86.5319    9.1530 O.2     1  UNL1       -0.1532
     32 H          62.3665   84.4242   11.3897 H       1  UNL1        0.1442
     33 H          63.4733   84.8695   10.2272 H       1  UNL1        0.1442
@<TRIPOS>BOND
     1     9    10    1
     2    10    11   ar
     3    11    12   ar
     4    12    13   ar
     5    13    14   ar
     6    14     7    1
     7     7     8    1
     8     7     1    1
     9     1     2   ar
    10     2     3   ar
    11     3     4   ar
    12     4     5   ar
    13     5    20    1
    14    20    22    1
    15    22    23   ar
    16    23    24   ar
    17    24    25   ar
    18    25    26   ar
    19    26    28    1
    20    28    29    1
    21    28    30    2
    22    28    31    2
    23    26    27   ar
    24     5     6   ar
    25    14    15   ar
    26    15    16   ar
    27    16    17   ar
    28    17    18   ar
    29    18    19    1
    30    18    10   ar
    31    17    12   ar
    32     6     1   ar
    33    27    22   ar
    34    20    21    1
    35    29    32    1
    36    29    33    1
@<TRIPOS>MOLECULE
*****
 33 36 0 0 0
SMALL
GASTEIGER

@<TRIPOS>ATOM
      1 C          60.9416   88.4607   10.1643 C.ar    1  UNL1        0.1399
      2 C          60.0272   88.3252    8.9830 C.ar    1  UNL1        0.0554
      3 C          60.0696   87.0853    8.1400 C.ar    1  UNL1        0.1047
      4 N          61.0265   85.9808    8.4782 N.ar    1  UNL1       -0.2119
      5 C          61.9410   86.1162    9.6595 C.ar    1  UNL1        0.2218
      6 N          61.8985   87.3562   10.5026 N.ar    1  UNL1       -0.1983
      7 N          60.8992   89.7007   11.0073 N.pl3   1  UNL1       -0.2705
      8 C          59.5805   90.2607   11.4516 C.3     1  UNL1        0.1187
      9 C          67.3250   94.1990   10.6953 C.3     1  UNL1        0.0718
     10 C          66.1874   93.2772   11.0211 C.ar    1  UNL1        0.1208
     11 N          65.0478   92.9270   10.1108 N.ar    1  UNL1       -0.2309
     12 C          64.1457   91.9771   10.8416 C.ar    1  UNL1        0.0996
     13 C          62.8696   91.2972   10.4428 C.ar    1  UNL1        0.0355
     14 C          62.1754   90.3806   11.4061 C.ar    1  UNL1        0.0543
     15 C          62.7575   90.1438   12.7681 C.ar    1  UNL1        0.0164
     16 C          64.0337   90.8236   13.1669 C.ar    1  UNL1        0.0200
     17 C          64.7278   91.7403   12.2037 C.ar    1  UNL1        0.0787
     18 N          65.9896   92.5438   12.3146 N.ar    1  UNL1       -0.3129
     19 C          66.8947   92.6034   13.5093 C.3     1  UNL1        0.1316
     20 N          62.8979   85.0117    9.9977 N.pl3   1  UNL1       -0.2825
     21 H          63.5050   84.6580    9.3081 H       1  UNL1        0.1551
     22 C          62.9297   84.4461   11.3866 C.ar    1  UNL1        0.0518
     23 C          63.2252   85.3405   12.5540 C.ar    1  UNL1        0.0148
     24 C          63.2571   84.7748   13.9429 C.ar    1  UNL1        0.0026
     25 C          62.9935   83.3149   14.1644 C.ar    1  UNL1        0.0200
     26 C          62.6981   82.4205   12.9970 C.ar    1  UNL1        0.1229
     27 C          62.6662   82.9862   11.6081 C.ar    1  UNL1        0.0346
     28 S          62.4345   80.9606   13.2184 S.O2    1  UNL1        0.0572
     29 N          62.1709   79.5006   13.4399 N.3     1  UNL1       -0.2035
     30 O          62.0459   81.2462   14.6388 O.2     1  UNL1       -0.1532
     31 O          62.8231   80.6749   11.7981 O.2     1  UNL1       -0.1532
     32 H          61.8620   79.3528   14.4007 H       1  UNL1        0.1442
     33 H          63.0267   78.9714   13.2727 H       1  UNL1        0.1442
@<TRIPOS>BOND
     1     9    10    1
     2    10    11   ar
     3    11    12   ar
     4    12    13   ar
     5    13    14   ar
     6    14     7    1
     7     7     8    1
     8     7     1    1
     9     1     2   ar
    10     2     3   ar
    11     3     4   ar
    12     4     5   ar
    13     5    20    1
    14    20    22    1
    15    22    23   ar
    16    23    24   ar
    17    24    25   ar
    18    25    26   ar
    19    26    28    1
    20    28    29    1
    21    28    30    2
    22    28    31    2
    23    26    27   ar
    24     5     6   ar
    25    14    15   ar
    26    15    16   ar
    27    16    17   ar
    28    17    18   ar
    29    18    19    1
    30    18    10   ar
    31    17    12   ar
    32     6     1   ar
    33    27    22   ar
    34    20    21    1
    35    29    32    1
    36    29    33    1
