@<TRIPOS>MOLECULE
*****
 20 22 0 0 0
SMALL
GASTEIGER

@<TRIPOS>ATOM
      1 C          63.5276   84.0107   12.0075 C.2     1  UNL1        0.0376
      2 C          64.3975   83.0387   11.2669 C.2     1  UNL1        0.0999
      3 N          64.2304   83.2931    9.7981 N.2     1  UNL1       -0.2478
      4 C          63.2572   84.4223    9.6310 C.2     1  UNL1        0.0634
      5 C          62.7105   85.1039    8.4118 C.3     1  UNL1        0.0719
      6 C          61.7294   86.2291    8.5582 C.2     1  UNL1       -0.0153
      7 C          61.2951   86.6726    9.9237 C.2     1  UNL1        0.0493
      8 C          61.8418   85.9909   11.1428 C.2     1  UNL1        0.0055
      9 C          62.8229   84.8658   10.9965 C.2     1  UNL1        0.0170
     10 C          62.0387   81.8456   13.9426 C.3     1  UNL1        0.1320
     11 N          62.7028   83.1150   14.3871 N.ar    1  UNL1       -0.3069
     12 C          62.7990   83.6121   15.7991 C.ar    1  UNL1        0.1786
     13 N          63.5429   84.9145   15.7822 N.ar    1  UNL1       -0.2223
     14 C          63.9064   85.2224   14.3598 C.ar    1  UNL1        0.1178
     15 C          63.3871   84.1102   13.4976 C.ar    1  UNL1        0.0820
     16 C          60.3140   87.7978   10.0700 C.2     1  UNL1        0.2424
     17 N          59.7423   88.1239   11.4179 N.am    1  UNL1       -0.3253
     18 O          59.9046   88.5969    8.8684 O.2     1  UNL1       -0.2704
     19 H          60.0110   87.5994   12.2065 H       1  UNL1        0.1453
     20 H          59.0984   88.8624   11.5139 H       1  UNL1        0.1453
@<TRIPOS>BOND
     1    10    11    1
     2    11    12   ar
     3    12    13   ar
     4    13    14   ar
     5    14    15   ar
     6    15     1    1
     7     1     2    2
     8     2     3    1
     9     3     4    2
    10     4     5    1
    11     5     6    1
    12     6     7    2
    13     7    16    1
    14    16    17   am
    15    16    18    2
    16     7     8    1
    17     8     9    2
    18    15    11   ar
    19     9     1    1
    20     9     4    1
    21    17    19    1
    22    17    20    1
@<TRIPOS>MOLECULE
*****
 20 22 0 0 0
SMALL
GASTEIGER

@<TRIPOS>ATOM
      1 C          65.8740   93.1536   12.0723 C.2     1  UNL1        0.0376
      2 C          66.4119   93.3475   13.4590 C.2     1  UNL1        0.0999
      3 N          65.7271   92.3659   14.3632 N.2     1  UNL1       -0.2478
      4 C          64.7661   91.5653   13.5353 C.2     1  UNL1        0.0634
      5 C          63.8200   90.4560   13.8878 C.3     1  UNL1        0.0719
      6 C          62.9648   89.8334   12.8243 C.2     1  UNL1       -0.0153
      7 C          63.0556   90.3202   11.4084 C.2     1  UNL1        0.0493
      8 C          64.0016   91.4296   11.0560 C.2     1  UNL1        0.0055
      9 C          64.8569   92.0521   12.1194 C.2     1  UNL1        0.0170
     10 C          68.0579   92.2027    9.8416 C.3     1  UNL1        0.1320
     11 N          67.2855   93.4885    9.8272 N.ar    1  UNL1       -0.3069
     12 C          67.3815   94.5629    8.7848 C.ar    1  UNL1        0.1786
     13 N          66.4368   95.6640    9.1661 N.ar    1  UNL1       -0.2223
     14 C          65.7572   95.2701   10.4439 C.ar    1  UNL1        0.1178
     15 C          66.2818   93.9255   10.8525 C.ar    1  UNL1        0.0820
     16 C          62.2003   89.6976   10.3450 C.2     1  UNL1        0.2424
     17 N          61.0380   90.4570    9.7773 N.am    1  UNL1       -0.3253
     18 O          62.5073   88.3156    9.8493 O.2     1  UNL1       -0.2704
     19 H          60.8365   91.3641   10.1026 H       1  UNL1        0.1453
     20 H          60.4766   90.0484    9.0793 H       1  UNL1        0.1453
@<TRIPOS>BOND
     1    10    11    1
     2    11    12   ar
     3    12    13   ar
     4    13    14   ar
     5    14    15   ar
     6    15     1    1
     7     1     2    2
     8     2     3    1
     9     3     4    2
    10     4     5    1
    11     5     6    1
    12     6     7    2
    13     7    16    1
    14    16    17   am
    15    16    18    2
    16     7     8    1
    17     8     9    2
    18    15    11   ar
    19     9     1    1
    20     9     4    1
    21    17    19    1
    22    17    20    1
@<TRIPOS>MOLECULE
*****
 20 22 0 0 0
SMALL
GASTEIGER

@<TRIPOS>ATOM
      1 C          63.0020   85.1796   12.6554 C.2     1  UNL1        0.0376
      2 C          63.6833   86.1381   13.5866 C.2     1  UNL1        0.0999
      3 N          63.5047   87.5229   13.0386 N.2     1  UNL1       -0.2478
      4 C          62.7130   87.4203   11.7686 C.2     1  UNL1        0.0634
      5 C          62.2349   88.4585   10.7973 C.3     1  UNL1        0.0719
      6 C          61.4461   88.0485    9.5892 C.2     1  UNL1       -0.0153
      7 C          61.1354   86.6003    9.3524 C.2     1  UNL1        0.0493
      8 C          61.6135   85.5621   10.3237 C.2     1  UNL1        0.0055
      9 C          62.4023   85.9721   11.5318 C.2     1  UNL1        0.0170
     10 C          64.2171   82.9643   10.5902 C.3     1  UNL1        0.1320
     11 N          63.4910   82.6719   11.8698 N.ar    1  UNL1       -0.3069
     12 C          63.1960   81.3099   12.4246 C.ar    1  UNL1        0.1786
     13 N          62.4552   81.4865   13.7169 N.ar    1  UNL1       -0.2223
     14 C          62.2923   82.9576   13.9607 C.ar    1  UNL1        0.1178
     15 C          62.9325   83.6902   12.8190 C.ar    1  UNL1        0.0820
     16 C          60.3466   86.1903    8.1442 C.2     1  UNL1        0.2424
     17 N          58.9093   86.5988    8.0128 N.am    1  UNL1       -0.3253
     18 O          60.9951   85.3717    7.0674 O.2     1  UNL1       -0.2704
     19 H          58.4837   87.1361    8.7195 H       1  UNL1        0.1453
     20 H          58.3916   86.3297    7.2198 H       1  UNL1        0.1453
@<TRIPOS>BOND
     1    10    11    1
     2    11    12   ar
     3    12    13   ar
     4    13    14   ar
     5    14    15   ar
     6    15     1    1
     7     1     2    2
     8     2     3    1
     9     3     4    2
    10     4     5    1
    11     5     6    1
    12     6     7    2
    13     7    16    1
    14    16    17   am
    15    16    18    2
    16     7     8    1
    17     8     9    2
    18    15    11   ar
    19     9     1    1
    20     9     4    1
    21    17    19    1
    22    17    20    1
@<TRIPOS>MOLECULE
*****
 20 22 0 0 0
SMALL
GASTEIGER

@<TRIPOS>ATOM
      1 C          62.3518   86.1488    9.7644 C.2     1  UNL1        0.0376
      2 C          62.8038   85.6391    8.4281 C.2     1  UNL1        0.0999
      3 N          63.4225   84.2880    8.6324 N.2     1  UNL1       -0.2478
      4 C          63.3530   83.9627   10.0951 C.2     1  UNL1        0.0634
      5 C          63.8068   82.7679   10.8802 C.3     1  UNL1        0.0719
      6 C          63.5988   82.7232   12.3650 C.2     1  UNL1       -0.0153
      7 C          62.9371   83.8732   13.0647 C.2     1  UNL1        0.0493
      8 C          62.4833   85.0680   12.2795 C.2     1  UNL1        0.0055
      9 C          62.6913   85.1128   10.7947 C.2     1  UNL1        0.0170
     10 C          59.4943   87.1198    8.5233 C.3     1  UNL1        0.1320
     11 N          60.3652   87.9100    9.4544 N.ar    1  UNL1       -0.3069
     12 C          60.0755   89.2853    9.9785 C.ar    1  UNL1        0.1786
     13 N          61.2100   89.6889   10.8729 N.ar    1  UNL1       -0.2223
     14 C          62.2008   88.5631   10.9016 C.ar    1  UNL1        0.1178
     15 C          61.6786   87.4637   10.0249 C.ar    1  UNL1        0.0820
     16 C          62.7291   83.8284   14.5496 C.2     1  UNL1        0.2424
     17 N          62.6259   82.5076   15.2529 N.am    1  UNL1       -0.3253
     18 O          62.6244   85.1045   15.3310 O.2     1  UNL1       -0.2704
     19 H          62.6946   81.6701   14.7400 H       1  UNL1        0.1453
     20 H          62.4894   82.4782   16.2275 H       1  UNL1        0.1453
@<TRIPOS>BOND
     1    10    11    1
     2    11    12   ar
     3    12    13   ar
     4    13    14   ar
     5    14    15   ar
     6    15     1    1
     7     1     2    2
     8     2     3    1
     9     3     4    2
    10     4     5    1
    11     5     6    1
    12     6     7    2
    13     7    16    1
    14    16    17   am
    15    16    18    2
    16     7     8    1
    17     8     9    2
    18    15    11   ar
    19     9     1    1
    20     9     4    1
    21    17    19    1
    22    17    20    1
@<TRIPOS>MOLECULE
*****
 20 22 0 0 0
SMALL
GASTEIGER

@<TRIPOS>ATOM
      1 C          62.1588   87.0454   11.0649 C.2     1  UNL1        0.0376
      2 C          62.6894   88.3747   11.5136 C.2     1  UNL1        0.0999
      3 N          63.4973   88.1552   12.7582 N.2     1  UNL1       -0.2478
      4 C          63.4660   86.6901   13.0788 C.2     1  UNL1        0.0634
      5 C          64.0839   85.8921   14.1884 C.3     1  UNL1        0.0719
      6 C          63.8746   84.4082   14.2515 C.2     1  UNL1       -0.0153
      7 C          63.0474   83.7222   13.2049 C.2     1  UNL1        0.0493
      8 C          62.4295   84.5203   12.0953 C.2     1  UNL1        0.0055
      9 C          62.6388   86.0042   12.0323 C.2     1  UNL1        0.0170
     10 C          62.9978   85.3123    8.4302 C.3     1  UNL1        0.1320
     11 N          61.6848   86.0035    8.6494 N.ar    1  UNL1       -0.3069
     12 C          60.5269   86.0195    7.6959 C.ar    1  UNL1        0.1786
     13 N          59.4256   86.8261    8.3178 N.ar    1  UNL1       -0.2223
     14 C          59.9029   87.3085    9.6555 C.ar    1  UNL1        0.1178
     15 C          61.2992   86.8001    9.8604 C.ar    1  UNL1        0.0820
     16 C          62.8381   82.2382   13.2681 C.2     1  UNL1        0.2424
     17 N          62.4888   81.5849   14.5723 N.am    1  UNL1       -0.3253
     18 O          62.9780   81.4076   12.0269 O.2     1  UNL1       -0.2704
     19 H          62.3969   82.1300   15.3869 H       1  UNL1        0.1453
     20 H          62.3514   80.6109   14.6137 H       1  UNL1        0.1453
@<TRIPOS>BOND
     1    10    11    1
     2    11    12   ar
     3    12    13   ar
     4    13    14   ar
     5    14    15   ar
     6    15     1    1
     7     1     2    2
     8     2     3    1
     9     3     4    2
    10     4     5    1
    11     5     6    1
    12     6     7    2
    13     7    16    1
    14    16    17   am
    15    16    18    2
    16     7     8    1
    17     8     9    2
    18    15    11   ar
    19     9     1    1
    20     9     4    1
    21    17    19    1
    22    17    20    1
@<TRIPOS>MOLECULE
*****
 20 22 0 0 0
SMALL
GASTEIGER

@<TRIPOS>ATOM
      1 C          62.2260   86.0597   10.9867 C.2     1  UNL1        0.0376
      2 C          61.4121   85.8229    9.7492 C.2     1  UNL1        0.0999
      3 N          61.0527   87.1584    9.1683 N.2     1  UNL1       -0.2478
      4 C          61.6445   88.2205   10.0467 C.2     1  UNL1        0.0634
      5 C          61.6167   89.7181    9.9685 C.3     1  UNL1        0.0719
      6 C          62.3141   90.5368   11.0141 C.2     1  UNL1       -0.0153
      7 C          63.0393   89.8578   12.1380 C.2     1  UNL1        0.0493
      8 C          63.0671   88.3601   12.2162 C.2     1  UNL1        0.0055
      9 C          62.3697   87.5415   11.1706 C.2     1  UNL1        0.0170
     10 C          63.9737   83.4749   10.0309 C.3     1  UNL1        0.1320
     11 N          63.5995   83.8126   11.4437 N.ar    1  UNL1       -0.3069
     12 C          63.9631   83.0214   12.6651 C.ar    1  UNL1        0.1786
     13 N          63.3843   83.7207   13.8594 N.ar    1  UNL1       -0.2223
     14 C          62.6632   84.9439   13.3760 C.ar    1  UNL1        0.1178
     15 C          62.7962   85.0007   11.8830 C.ar    1  UNL1        0.0820
     16 C          63.7367   90.6766   13.1836 C.2     1  UNL1        0.2424
     17 N          63.2457   90.6589   14.6009 N.am    1  UNL1       -0.3253
     18 O          64.9251   91.5129   12.8120 O.2     1  UNL1       -0.2704
     19 H          62.4657   90.1099   14.8448 H       1  UNL1        0.1453
     20 H          63.7034   91.1962   15.2871 H       1  UNL1        0.1453
@<TRIPOS>BOND
     1    10    11    1
     2    11    12   ar
     3    12    13   ar
     4    13    14   ar
     5    14    15   ar
     6    15     1    1
     7     1     2    2
     8     2     3    1
     9     3     4    2
    10     4     5    1
    11     5     6    1
    12     6     7    2
    13     7    16    1
    14    16    17   am
    15    16    18    2
    16     7     8    1
    17     8     9    2
    18    15    11   ar
    19     9     1    1
    20     9     4    1
    21    17    19    1
    22    17    20    1
@<TRIPOS>MOLECULE
*****
 20 22 0 0 0
SMALL
GASTEIGER

@<TRIPOS>ATOM
      1 C          61.8773   86.0272    9.7853 C.2     1  UNL1        0.0376
      2 C          60.8353   85.9187    8.7118 C.2     1  UNL1        0.0999
      3 N          60.1379   87.2426    8.6074 N.2     1  UNL1       -0.2478
      4 C          60.7489   88.1693    9.6163 C.2     1  UNL1        0.0634
      5 C          60.4652   89.6000    9.9662 C.3     1  UNL1        0.0719
      6 C          61.2565   90.2796   11.0441 C.2     1  UNL1       -0.0153
      7 C          62.3315   89.5284   11.7722 C.2     1  UNL1        0.0493
      8 C          62.6152   88.0976   11.4223 C.2     1  UNL1        0.0055
      9 C          61.8239   87.4181   10.3444 C.2     1  UNL1        0.0170
     10 C          62.3157   84.9935   12.8494 C.3     1  UNL1        0.1320
     11 N          63.0106   84.4611   11.6314 N.ar    1  UNL1       -0.3069
     12 C          64.0291   83.3601   11.6080 C.ar    1  UNL1        0.1786
     13 N          64.4570   83.1548   10.1850 N.ar    1  UNL1       -0.2223
     14 C          63.7030   84.1289    9.3291 C.ar    1  UNL1        0.1178
     15 C          62.8091   84.9362   10.2230 C.ar    1  UNL1        0.0820
     16 C          63.1229   90.2080   12.8502 C.2     1  UNL1        0.2424
     17 N          62.7234   90.0491   14.2872 N.am    1  UNL1       -0.3253
     18 O          64.3137   91.0464   12.4910 O.2     1  UNL1       -0.2704
     19 H          61.9418   89.4989   14.5229 H       1  UNL1        0.1453
     20 H          63.2428   90.4952   14.9947 H       1  UNL1        0.1453
@<TRIPOS>BOND
     1    10    11    1
     2    11    12   ar
     3    12    13   ar
     4    13    14   ar
     5    14    15   ar
     6    15     1    1
     7     1     2    2
     8     2     3    1
     9     3     4    2
    10     4     5    1
    11     5     6    1
    12     6     7    2
    13     7    16    1
    14    16    17   am
    15    16    18    2
    16     7     8    1
    17     8     9    2
    18    15    11   ar
    19     9     1    1
    20     9     4    1
    21    17    19    1
    22    17    20    1
@<TRIPOS>MOLECULE
*****
 20 22 0 0 0
SMALL
GASTEIGER

@<TRIPOS>ATOM
      1 C          62.7911   90.2765   10.7164 C.2     1  UNL1        0.0376
      2 C          63.4551   91.2716    9.8115 C.2     1  UNL1        0.0999
      3 N          64.4271   92.0671   10.6315 N.2     1  UNL1       -0.2478
      4 C          64.3639   91.5636   12.0430 C.2     1  UNL1        0.0634
      5 C          65.0964   91.9698   13.2874 C.3     1  UNL1        0.0719
      6 C          64.8177   91.2694   14.5841 C.2     1  UNL1       -0.0153
      7 C          63.8065   90.1627   14.6366 C.2     1  UNL1        0.0493
      8 C          63.0740   89.7564   13.3923 C.2     1  UNL1        0.0055
      9 C          63.3527   90.4569   12.0955 C.2     1  UNL1        0.0170
     10 C          59.5811   90.5327   11.2451 C.3     1  UNL1        0.1320
     11 N          60.2730   89.3941   10.5559 N.ar    1  UNL1       -0.3069
     12 C          59.6108   88.1735    9.9888 C.ar    1  UNL1        0.1786
     13 N          60.6772   87.3013    9.3953 N.ar    1  UNL1       -0.2223
     14 C          61.9982   87.9829    9.5956 C.ar    1  UNL1        0.1178
     15 C          61.7484   89.2764   10.3129 C.ar    1  UNL1        0.0820
     16 C          63.5279   89.4622   15.9334 C.2     1  UNL1        0.2424
     17 N          63.5162   87.9633   15.9889 N.am    1  UNL1       -0.3253
     18 O          63.2609   90.2607   17.1749 O.2     1  UNL1       -0.2704
     19 H          63.6914   87.4392   15.1741 H       1  UNL1        0.1453
     20 H          63.3333   87.5036   16.8400 H       1  UNL1        0.1453
@<TRIPOS>BOND
     1    10    11    1
     2    11    12   ar
     3    12    13   ar
     4    13    14   ar
     5    14    15   ar
     6    15     1    1
     7     1     2    2
     8     2     3    1
     9     3     4    2
    10     4     5    1
    11     5     6    1
    12     6     7    2
    13     7    16    1
    14    16    17   am
    15    16    18    2
    16     7     8    1
    17     8     9    2
    18    15    11   ar
    19     9     1    1
    20     9     4    1
    21    17    19    1
    22    17    20    1
@<TRIPOS>MOLECULE
*****
 20 22 0 0 0
SMALL
GASTEIGER

@<TRIPOS>ATOM
      1 C          62.4881   88.9499   10.6871 C.2     1  UNL1        0.0376
      2 C          62.5485   90.4020   10.3161 C.2     1  UNL1        0.0999
      3 N          63.2316   91.1372   11.4309 N.2     1  UNL1       -0.2478
      4 C          63.5935   90.1395   12.4909 C.2     1  UNL1        0.0634
      5 C          64.2820   90.2873   13.8153 C.3     1  UNL1        0.0719
      6 C          64.5110   89.0832   14.6800 C.2     1  UNL1       -0.0153
      7 C          64.0515   87.7313   14.2203 C.2     1  UNL1        0.0493
      8 C          63.3630   87.5835   12.8959 C.2     1  UNL1        0.0055
      9 C          63.1340   88.7876   12.0312 C.2     1  UNL1        0.0170
     10 C          59.9198   89.2369    8.6945 C.3     1  UNL1        0.1320
     11 N          60.7069   87.9845    8.9435 N.ar    1  UNL1       -0.3069
     12 C          60.4516   86.6442    8.3202 C.ar    1  UNL1        0.1786
     13 N          61.4745   85.6839    8.8510 N.ar    1  UNL1       -0.2223
     14 C          62.3618   86.4308    9.8023 C.ar    1  UNL1        0.1178
     15 C          61.8874   87.8526    9.8594 C.ar    1  UNL1        0.0820
     16 C          64.2805   86.5272   15.0851 C.2     1  UNL1        0.2424
     17 N          65.5232   85.7052   14.9123 N.am    1  UNL1       -0.3253
     18 O          63.2668   86.1452   16.1226 O.2     1  UNL1       -0.2704
     19 H          66.1886   85.9560   14.2314 H       1  UNL1        0.1453
     20 H          65.6736   84.9150   15.4799 H       1  UNL1        0.1453
@<TRIPOS>BOND
     1    10    11    1
     2    11    12   ar
     3    12    13   ar
     4    13    14   ar
     5    14    15   ar
     6    15     1    1
     7     1     2    2
     8     2     3    1
     9     3     4    2
    10     4     5    1
    11     5     6    1
    12     6     7    2
    13     7    16    1
    14    16    17   am
    15    16    18    2
    16     7     8    1
    17     8     9    2
    18    15    11   ar
    19     9     1    1
    20     9     4    1
    21    17    19    1
    22    17    20    1
