@<TRIPOS>MOLECULE
*****
 21 22 0 0 0
SMALL
GASTEIGER

@<TRIPOS>ATOM
      1 C          63.8401   82.3490   13.8072 C.2     1  UNL1        0.4049
      2 O          64.6254   82.1895   12.5392 O.2     1  UNL1       -0.2262
      3 N          63.6941   83.7041   14.4336 N.am    1  UNL1       -0.2454
      4 C          62.9088   83.8635   15.7016 C.3     1  UNL1        0.1011
      5 C          62.7627   85.2186   16.3280 C.3     1  UNL1        0.0443
      6 C          63.4019   86.4143   15.6863 C.2     1  UNL1       -0.0326
      7 C          63.2558   87.7694   16.3126 C.2     1  UNL1        0.0412
      8 C          64.1871   86.2549   14.4182 C.3     1  UNL1        0.0443
      9 C          64.3332   84.8998   13.7919 C.3     1  UNL1        0.1011
     10 C          63.8949   88.9651   15.6710 C.1     1  UNL1       -0.0598
     11 C          64.5341   90.1608   15.0292 C.1     1  UNL1       -0.0597
     12 C          65.1732   91.3565   14.3876 C.ar    1  UNL1        0.0428
     13 C          66.0485   92.2651   15.1991 C.ar    1  UNL1        0.0083
     14 C          66.6877   93.4607   14.5574 C.ar    1  UNL1        0.0015
     15 C          66.4515   93.7480   13.1042 C.ar    1  UNL1        0.0114
     16 C          65.5763   92.8395   12.2927 C.ar    1  UNL1        0.0583
     17 CL         65.3402   93.1267   10.8395 Cl      1  UNL1       -0.0822
     18 C          64.9371   91.6437   12.9344 C.ar    1  UNL1        0.0196
     19 O          63.2010   81.1533   14.4489 O.3     1  UNL1       -0.4345
     20 C          60.6630   80.7189   14.1023 C.3     1  UNL1        0.0513
     21 C          62.0911   80.4288   13.7466 C.3     1  UNL1        0.2102
@<TRIPOS>BOND
     1    20    21    1
     2    21    19    1
     3    19     1    1
     4     1     2    2
     5     1     3   am
     6     3     4    1
     7     4     5    1
     8     5     6    1
     9     6     7    2
    10     7    10    1
    11    10    11    3
    12    11    12    1
    13    12    13   ar
    14    13    14   ar
    15    14    15   ar
    16    15    16   ar
    17    16    17    1
    18    16    18   ar
    19     6     8    1
    20     8     9    1
    21     9     3    1
    22    18    12   ar
@<TRIPOS>MOLECULE
*****
 21 22 0 0 0
SMALL
GASTEIGER

@<TRIPOS>ATOM
      1 C          63.9193   82.0087   13.4175 C.2     1  UNL1        0.4049
      2 O          64.6763   81.9087   12.1264 O.2     1  UNL1       -0.2262
      3 N          63.7744   83.3360   14.1011 N.am    1  UNL1       -0.2454
      4 C          63.0175   83.4359   15.3922 C.3     1  UNL1        0.1011
      5 C          62.8726   84.7632   16.0758 C.3     1  UNL1        0.0443
      6 C          63.4846   85.9905   15.4683 C.2     1  UNL1       -0.0326
      7 C          63.3397   87.3178   16.1519 C.2     1  UNL1        0.0412
      8 C          64.2415   85.8906   14.1772 C.3     1  UNL1        0.0443
      9 C          64.3864   84.5633   13.4936 C.3     1  UNL1        0.1011
     10 C          63.9517   88.5451   15.5444 C.1     1  UNL1       -0.0598
     11 C          64.5637   89.7725   14.9368 C.1     1  UNL1       -0.0597
     12 C          65.1757   90.9998   14.3292 C.ar    1  UNL1        0.0428
     13 C          64.7447   91.4571   12.9671 C.ar    1  UNL1        0.0083
     14 C          65.3567   92.6844   12.3596 C.ar    1  UNL1        0.0015
     15 C          66.3997   93.4545   13.1141 C.ar    1  UNL1        0.0114
     16 C          66.8306   92.9972   14.4761 C.ar    1  UNL1        0.0583
     17 CL         67.8735   93.7673   15.2306 Cl      1  UNL1       -0.0822
     18 C          66.2186   91.7699   15.0837 C.ar    1  UNL1        0.0196
     19 O          63.3074   80.7814   14.0251 O.3     1  UNL1       -0.4345
     20 C          60.7104   80.7820   14.1039 C.3     1  UNL1        0.0513
     21 C          61.9922   80.2691   13.5172 C.3     1  UNL1        0.2102
@<TRIPOS>BOND
     1    20    21    1
     2    21    19    1
     3    19     1    1
     4     1     2    2
     5     1     3   am
     6     3     4    1
     7     4     5    1
     8     5     6    1
     9     6     7    2
    10     7    10    1
    11    10    11    3
    12    11    12    1
    13    12    13   ar
    14    13    14   ar
    15    14    15   ar
    16    15    16   ar
    17    16    17    1
    18    16    18   ar
    19     6     8    1
    20     8     9    1
    21     9     3    1
    22    18    12   ar
@<TRIPOS>MOLECULE
*****
 21 22 0 0 0
SMALL
GASTEIGER

@<TRIPOS>ATOM
      1 C          66.5013   93.6764   13.6760 C.2     1  UNL1        0.4049
      2 O          66.4610   94.6894   12.5705 O.2     1  UNL1       -0.2262
      3 N          65.7265   92.3982   13.5506 N.am    1  UNL1       -0.2454
      4 C          65.7668   91.3852   14.6561 C.3     1  UNL1        0.1011
      5 C          64.9919   90.1069   14.5307 C.3     1  UNL1        0.0443
      6 C          64.1768   89.8417   13.2998 C.2     1  UNL1       -0.0326
      7 C          63.4019   88.5634   13.1744 C.2     1  UNL1        0.0412
      8 C          64.1365   90.8547   12.1943 C.3     1  UNL1        0.0443
      9 C          64.9113   92.1329   12.3197 C.3     1  UNL1        0.1011
     10 C          62.5868   88.2982   11.9435 C.1     1  UNL1       -0.0598
     11 C          61.7716   88.0330   10.7125 C.1     1  UNL1       -0.0597
     12 C          60.9565   87.7678    9.4816 C.ar    1  UNL1        0.0428
     13 C          60.7000   86.3568    9.0415 C.ar    1  UNL1        0.0083
     14 C          59.8849   86.0916    7.8106 C.ar    1  UNL1        0.0015
     15 C          59.3261   87.2372    7.0198 C.ar    1  UNL1        0.0114
     16 C          59.5825   88.6481    7.4599 C.ar    1  UNL1        0.0583
     17 CL         59.0237   89.7937    6.6691 Cl      1  UNL1       -0.0822
     18 C          60.3977   88.9134    8.6908 C.ar    1  UNL1        0.0196
     19 O          67.3165   93.9416   14.9068 O.3     1  UNL1       -0.4345
     20 C          68.7979   92.3301   16.3064 C.3     1  UNL1        0.0513
     21 C          68.6166   93.2230   15.1147 C.3     1  UNL1        0.2102
@<TRIPOS>BOND
     1    20    21    1
     2    21    19    1
     3    19     1    1
     4     1     2    2
     5     1     3   am
     6     3     4    1
     7     4     5    1
     8     5     6    1
     9     6     7    2
    10     7    10    1
    11    10    11    3
    12    11    12    1
    13    12    13   ar
    14    13    14   ar
    15    14    15   ar
    16    15    16   ar
    17    16    17    1
    18    16    18   ar
    19     6     8    1
    20     8     9    1
    21     9     3    1
    22    18    12   ar
@<TRIPOS>MOLECULE
*****
 21 22 0 0 0
SMALL
GASTEIGER

@<TRIPOS>ATOM
      1 C          62.9352   82.8012   13.5634 C.2     1  UNL1        0.4049
      2 O          63.8840   82.5260   14.6921 O.2     1  UNL1       -0.2262
      3 N          62.8241   84.1861   12.9978 N.am    1  UNL1       -0.2454
      4 C          61.8754   84.4614   11.8691 C.3     1  UNL1        0.1011
      5 C          61.7643   85.8462   11.3035 C.3     1  UNL1        0.0443
      6 C          62.6019   86.9558   11.8667 C.2     1  UNL1       -0.0326
      7 C          62.4908   88.3406   11.3011 C.2     1  UNL1        0.0412
      8 C          63.5506   86.6805   12.9954 C.3     1  UNL1        0.0443
      9 C          63.6617   85.2957   13.5610 C.3     1  UNL1        0.1011
     10 C          63.3284   89.4502   11.8643 C.1     1  UNL1       -0.0598
     11 C          64.1661   90.5598   12.4275 C.1     1  UNL1       -0.0597
     12 C          65.0037   91.6694   12.9907 C.ar    1  UNL1        0.0428
     13 C          65.3827   92.8357   12.1268 C.ar    1  UNL1        0.0083
     14 C          66.2203   93.9452   12.6900 C.ar    1  UNL1        0.0015
     15 C          66.6790   93.8886   14.1170 C.ar    1  UNL1        0.0114
     16 C          66.3001   92.7224   14.9809 C.ar    1  UNL1        0.0583
     17 CL         66.7588   92.6657   16.4079 Cl      1  UNL1       -0.0822
     18 C          65.4624   91.6127   14.4177 C.ar    1  UNL1        0.0196
     19 O          62.0976   81.6917   13.0002 O.3     1  UNL1       -0.4345
     20 C          60.1003   80.5010   14.1592 C.3     1  UNL1        0.0513
     21 C          61.5740   80.6146   13.9034 C.3     1  UNL1        0.2102
@<TRIPOS>BOND
     1    20    21    1
     2    21    19    1
     3    19     1    1
     4     1     2    2
     5     1     3   am
     6     3     4    1
     7     4     5    1
     8     5     6    1
     9     6     7    2
    10     7    10    1
    11    10    11    3
    12    11    12    1
    13    12    13   ar
    14    13    14   ar
    15    14    15   ar
    16    15    16   ar
    17    16    17    1
    18    16    18   ar
    19     6     8    1
    20     8     9    1
    21     9     3    1
    22    18    12   ar
@<TRIPOS>MOLECULE
*****
 21 22 0 0 0
SMALL
GASTEIGER

@<TRIPOS>ATOM
      1 C          63.2099   81.7255   12.9042 C.2     1  UNL1        0.4049
      2 O          63.9292   81.2603   14.1356 O.2     1  UNL1       -0.2262
      3 N          63.1050   83.1917   12.6058 N.am    1  UNL1       -0.2454
      4 C          62.3858   83.6569   11.3744 C.3     1  UNL1        0.1011
      5 C          62.2809   85.1231   11.0760 C.3     1  UNL1        0.0443
      6 C          62.8951   86.1242   12.0089 C.2     1  UNL1       -0.0326
      7 C          62.7902   87.5905   11.7104 C.2     1  UNL1        0.0412
      8 C          63.6144   85.6591   13.2402 C.3     1  UNL1        0.0443
      9 C          63.7193   84.1928   13.5387 C.3     1  UNL1        0.1011
     10 C          63.4045   88.5916   12.6433 C.1     1  UNL1       -0.0598
     11 C          64.0189   89.5928   13.5763 C.1     1  UNL1       -0.0597
     12 C          64.6332   90.5939   14.5092 C.ar    1  UNL1        0.0428
     13 C          63.9199   90.9792   15.7713 C.ar    1  UNL1        0.0083
     14 C          64.5342   91.9803   16.7042 C.ar    1  UNL1        0.0015
     15 C          65.8617   92.5962   16.3751 C.ar    1  UNL1        0.0114
     16 C          66.5750   92.2109   15.1131 C.ar    1  UNL1        0.0583
     17 CL         67.9026   92.8267   14.7840 Cl      1  UNL1       -0.0822
     18 C          65.9607   91.2097   14.1801 C.ar    1  UNL1        0.0196
     19 O          62.5956   80.7244   11.9713 O.3     1  UNL1       -0.4345
     20 C          62.7942   79.3130    9.7991 C.3     1  UNL1        0.0513
     21 C          63.1739   80.5217   10.6022 C.3     1  UNL1        0.2102
@<TRIPOS>BOND
     1    20    21    1
     2    21    19    1
     3    19     1    1
     4     1     2    2
     5     1     3   am
     6     3     4    1
     7     4     5    1
     8     5     6    1
     9     6     7    2
    10     7    10    1
    11    10    11    3
    12    11    12    1
    13    12    13   ar
    14    13    14   ar
    15    14    15   ar
    16    15    16   ar
    17    16    17    1
    18    16    18   ar
    19     6     8    1
    20     8     9    1
    21     9     3    1
    22    18    12   ar
@<TRIPOS>MOLECULE
*****
 21 22 0 0 0
SMALL
GASTEIGER

@<TRIPOS>ATOM
      1 C          63.2132   81.6401   12.4286 C.2     1  UNL1        0.4049
      2 O          63.4289   81.7266   10.9468 O.2     1  UNL1       -0.2262
      3 N          63.3710   82.8634   13.2822 N.am    1  UNL1       -0.2454
      4 C          63.1553   82.7769   14.7640 C.3     1  UNL1        0.1011
      5 C          63.3131   84.0003   15.6176 C.3     1  UNL1        0.0443
      6 C          63.6865   85.3101   14.9893 C.2     1  UNL1       -0.0326
      7 C          63.8443   86.5334   15.8429 C.2     1  UNL1        0.0412
      8 C          63.9022   85.3966   13.5075 C.3     1  UNL1        0.0443
      9 C          63.7444   84.1733   12.6539 C.3     1  UNL1        0.1011
     10 C          64.2178   87.8433   15.2146 C.1     1  UNL1       -0.0598
     11 C          64.5912   89.1532   14.5862 C.1     1  UNL1       -0.0597
     12 C          64.9647   90.4630   13.9580 C.ar    1  UNL1        0.0428
     13 C          65.7878   91.4551   14.7250 C.ar    1  UNL1        0.0083
     14 C          66.1613   92.7650   14.0967 C.ar    1  UNL1        0.0015
     15 C          65.7117   93.0828   12.7014 C.ar    1  UNL1        0.0114
     16 C          64.8886   92.0907   11.9344 C.ar    1  UNL1        0.0583
     17 CL         64.4390   92.4085   10.5391 Cl      1  UNL1       -0.0822
     18 C          64.5151   90.7808   12.5627 C.ar    1  UNL1        0.0196
     19 O          62.8397   80.3303   13.0569 O.3     1  UNL1       -0.4345
     20 C          60.5387   80.7319   14.1946 C.3     1  UNL1        0.0513
     21 C          61.3949   79.9663   13.2297 C.3     1  UNL1        0.2102
@<TRIPOS>BOND
     1    20    21    1
     2    21    19    1
     3    19     1    1
     4     1     2    2
     5     1     3   am
     6     3     4    1
     7     4     5    1
     8     5     6    1
     9     6     7    2
    10     7    10    1
    11    10    11    3
    12    11    12    1
    13    12    13   ar
    14    13    14   ar
    15    14    15   ar
    16    15    16   ar
    17    16    17    1
    18    16    18   ar
    19     6     8    1
    20     8     9    1
    21     9     3    1
    22    18    12   ar
@<TRIPOS>MOLECULE
*****
 21 22 0 0 0
SMALL
GASTEIGER

@<TRIPOS>ATOM
      1 C          63.8503   91.3867   11.7460 C.2     1  UNL1        0.4049
      2 O          63.2503   91.2093   10.3828 O.2     1  UNL1       -0.2262
      3 N          63.9730   90.2116   12.6702 N.am    1  UNL1       -0.2454
      4 C          64.5730   90.3891   14.0335 C.3     1  UNL1        0.1011
      5 C          64.6957   89.2140   14.9576 C.3     1  UNL1        0.0443
      6 C          64.2183   87.8615   14.5186 C.2     1  UNL1       -0.0326
      7 C          64.3410   86.6864   15.4427 C.2     1  UNL1        0.0412
      8 C          63.6183   87.6840   13.1553 C.3     1  UNL1        0.0443
      9 C          63.4956   88.8591   12.2312 C.3     1  UNL1        0.1011
     10 C          63.8637   85.3339   15.0037 C.1     1  UNL1       -0.0598
     11 C          63.3863   83.9813   14.5646 C.1     1  UNL1       -0.0597
     12 C          62.9090   82.6288   14.1255 C.ar    1  UNL1        0.0428
     13 C          63.8309   81.7161   13.3724 C.ar    1  UNL1        0.0083
     14 C          63.3535   80.3636   12.9333 C.ar    1  UNL1        0.0015
     15 C          61.9543   79.9237   13.2474 C.ar    1  UNL1        0.0114
     16 C          61.0324   80.8363   14.0005 C.ar    1  UNL1        0.0583
     17 CL         59.6332   80.3963   14.3145 Cl      1  UNL1       -0.0822
     18 C          61.5097   82.1889   14.4396 C.ar    1  UNL1        0.0196
     19 O          64.3276   92.7393   12.1851 O.3     1  UNL1       -0.4345
     20 C          66.3952   92.7231   10.6118 C.3     1  UNL1        0.0513
     21 C          65.7291   93.1764   11.8772 C.3     1  UNL1        0.2102
@<TRIPOS>BOND
     1    20    21    1
     2    21    19    1
     3    19     1    1
     4     1     2    2
     5     1     3   am
     6     3     4    1
     7     4     5    1
     8     5     6    1
     9     6     7    2
    10     7    10    1
    11    10    11    3
    12    11    12    1
    13    12    13   ar
    14    13    14   ar
    15    14    15   ar
    16    15    16   ar
    17    16    17    1
    18    16    18   ar
    19     6     8    1
    20     8     9    1
    21     9     3    1
    22    18    12   ar
@<TRIPOS>MOLECULE
*****
 21 22 0 0 0
SMALL
GASTEIGER

@<TRIPOS>ATOM
      1 C          59.8415   88.1265    8.3189 C.2     1  UNL1        0.4049
      2 O          59.7837   89.3625    7.4710 O.2     1  UNL1       -0.2262
      3 N          60.7419   88.0807    9.5177 N.am    1  UNL1       -0.2454
      4 C          60.7997   86.8448   10.3655 C.3     1  UNL1        0.1011
      5 C          61.7002   86.7990   11.5643 C.3     1  UNL1        0.0443
      6 C          62.5428   87.9892   11.9152 C.2     1  UNL1       -0.0326
      7 C          63.4433   87.9435   13.1140 C.2     1  UNL1        0.0412
      8 C          62.4851   89.2252   11.0674 C.3     1  UNL1        0.0443
      9 C          61.5846   89.2710    9.8686 C.3     1  UNL1        0.1011
     10 C          64.2860   89.1337   13.4649 C.1     1  UNL1       -0.0598
     11 C          65.1288   90.3240   13.8158 C.1     1  UNL1       -0.0597
     12 C          65.9715   91.5142   14.1667 C.ar    1  UNL1        0.0428
     13 C          65.7144   92.8362   13.5061 C.ar    1  UNL1        0.0083
     14 C          66.5570   94.0264   13.8571 C.ar    1  UNL1        0.0015
     15 C          67.6569   93.8947   14.8685 C.ar    1  UNL1        0.0114
     16 C          67.9140   92.5728   15.5290 C.ar    1  UNL1        0.0583
     17 CL         69.0139   92.4411   16.5405 Cl      1  UNL1       -0.0822
     18 C          67.0713   91.3825   15.1781 C.ar    1  UNL1        0.0196
     19 O          58.9988   86.9363    7.9680 O.3     1  UNL1       -0.4345
     20 C          61.0967   85.5819    7.2506 C.3     1  UNL1        0.0513
     21 C          59.6088   85.7725    7.2445 C.3     1  UNL1        0.2102
@<TRIPOS>BOND
     1    20    21    1
     2    21    19    1
     3    19     1    1
     4     1     2    2
     5     1     3   am
     6     3     4    1
     7     4     5    1
     8     5     6    1
     9     6     7    2
    10     7    10    1
    11    10    11    3
    12    11    12    1
    13    12    13   ar
    14    13    14   ar
    15    14    15   ar
    16    15    16   ar
    17    16    17    1
    18    16    18   ar
    19     6     8    1
    20     8     9    1
    21     9     3    1
    22    18    12   ar
@<TRIPOS>MOLECULE
*****
 21 22 0 0 0
SMALL
GASTEIGER

@<TRIPOS>ATOM
      1 C          60.8863   86.3238    9.8568 C.2     1  UNL1        0.4049
      2 O          61.2994   85.1621   10.7110 O.2     1  UNL1       -0.2262
      3 N          61.5018   87.6737   10.0780 N.am    1  UNL1       -0.2454
      4 C          61.0886   88.8354    9.2237 C.3     1  UNL1        0.1011
      5 C          61.7041   90.1853    9.4449 C.3     1  UNL1        0.0443
      6 C          62.7327   90.3735   10.5202 C.2     1  UNL1       -0.0326
      7 C          63.3482   91.7235   10.7414 C.2     1  UNL1        0.0412
      8 C          63.1458   89.2119   11.3745 C.3     1  UNL1        0.0443
      9 C          62.5304   87.8619   11.1533 C.3     1  UNL1        0.1011
     10 C          64.3768   91.9117   11.8167 C.1     1  UNL1       -0.0598
     11 C          65.4055   92.0999   12.8921 C.1     1  UNL1       -0.0597
     12 C          66.4341   92.2882   13.9675 C.ar    1  UNL1        0.0428
     13 C          66.0030   92.5483   15.3805 C.ar    1  UNL1        0.0083
     14 C          67.0316   92.7366   16.4559 C.ar    1  UNL1        0.0015
     15 C          68.4914   92.6647   16.1183 C.ar    1  UNL1        0.0114
     16 C          68.9225   92.4046   14.7054 C.ar    1  UNL1        0.0583
     17 CL         70.3823   92.3327   14.3678 Cl      1  UNL1       -0.0822
     18 C          67.8939   92.2163   13.6299 C.ar    1  UNL1        0.0196
     19 O          59.8577   86.1355    8.7814 O.3     1  UNL1       -0.4345
     20 C          61.6227   85.1591    7.1440 C.3     1  UNL1        0.0513
     21 C          60.2864   85.7966    7.3845 C.3     1  UNL1        0.2102
@<TRIPOS>BOND
     1    20    21    1
     2    21    19    1
     3    19     1    1
     4     1     2    2
     5     1     3   am
     6     3     4    1
     7     4     5    1
     8     5     6    1
     9     6     7    2
    10     7    10    1
    11    10    11    3
    12    11    12    1
    13    12    13   ar
    14    13    14   ar
    15    14    15   ar
    16    15    16   ar
    17    16    17    1
    18    16    18   ar
    19     6     8    1
    20     8     9    1
    21     9     3    1
    22    18    12   ar
