@<TRIPOS>MOLECULE
*****
 41 44 0 0 0
SMALL
GASTEIGER

@<TRIPOS>ATOM
      1 C          64.1865   90.7111   13.9190 C.3     1  UNL1        0.0296
      2 C          63.5352   91.2559   12.6825 C.3     1  UNL1        0.0052
      3 C          63.0299   90.0967   11.8756 C.3     1  UNL1        0.0309
      4 C          63.3690   88.8355   12.6134 C.3     1  UNL1        0.1033
      5 O          62.6451   88.6094   11.3193 O.3     1  UNL1       -0.3830
      6 C          63.1192   87.3904   12.2985 C.2     1  UNL1       -0.0179
      7 C          62.4044   87.0107   11.0357 C.2     1  UNL1        0.0311
      8 C          62.1546   85.5655   10.7207 C.2     1  UNL1        0.1722
      9 O          61.4397   85.1859    9.4578 O.2     1  UNL1       -0.2914
     10 C          62.6197   84.5001   11.6687 C.3     1  UNL1        0.0647
     11 C          62.3698   83.0549   11.3537 C.3     1  UNL1        0.0394
     12 C          62.8349   81.9895   12.3016 C.3     1  UNL1        0.1376
     13 O          62.5851   80.5444   11.9867 O.3     1  UNL1       -0.3820
     14 C          63.5498   82.3693   13.5645 C.3     1  UNL1        0.1372
     15 O          64.0149   81.3038   14.5124 O.3     1  UNL1       -0.3820
     16 C          63.7996   83.8144   13.8794 C.3     1  UNL1        0.0325
     17 C          63.3345   84.8798   12.9314 C.3     1  UNL1        0.0129
     18 C          64.0493   85.2595   14.1943 C.3     1  UNL1        0.0008
     19 C          63.5843   86.3250   13.2464 C.3     1  UNL1        0.0211
     20 C          64.2991   86.7047   14.5092 C.3     1  UNL1        0.0042
     21 C          64.5489   88.1498   14.8242 C.3     1  UNL1        0.0030
     22 C          64.0838   89.2152   13.8763 C.3     1  UNL1        0.0281
     23 C          64.7818   89.7443   15.0940 C.3     1  UNL1        0.0027
     24 H          62.5188   87.6576   11.1815 H       1  UNL1        0.2107
     25 H          62.1160   80.4743   11.1406 H       1  UNL1        0.2104
     26 H          63.7756   80.4318   14.1614 H       1  UNL1        0.2104
     27 C          64.8280   91.5201   15.0071 C.3     1  UNL1        0.1129
     28 C          65.4695   92.3292   16.0952 C.3     1  UNL1        0.0318
     29 O          63.5599   91.4518   15.8055 O.3     1  UNL1       -0.3844
     30 H          63.6777   91.9303   16.6410 H       1  UNL1        0.2103
     31 C          66.0961   91.5885   14.2088 C.3     1  UNL1        0.1349
     32 O          67.3987   91.1858   14.8342 O.3     1  UNL1       -0.3821
     33 H          67.2453   90.9091   15.7512 H       1  UNL1        0.2104
     34 C          66.0616   92.0595   12.7851 C.3     1  UNL1        0.0340
     35 C          66.6071   94.4756   13.5693 C.3     1  UNL1        0.0025
     36 C          66.2808   93.5093   12.4692 C.3     1  UNL1        0.0272
     37 C          66.1738   93.9930   11.0534 C.3     1  UNL1        0.0885
     38 C          66.1839   92.5738   10.5679 C.3     1  UNL1        0.0293
     39 C          66.1638   95.4122   11.5390 C.3     1  UNL1        0.0293
     40 O          66.0669   94.4766    9.6375 O.3     1  UNL1       -0.3867
     41 H          66.0499   93.7156    9.0363 H       1  UNL1        0.2102
@<TRIPOS>BOND
     1    36    35    1
     2    36    34    1
     3    34    31    1
     4    31    32    1
     5    31    27    1
     6    27    28    1
     7    27    29    1
     8    27     1    1
     9     1     2    1
    10     2     3    1
    11     3     4    1
    12     4     5    1
    13     4     6    1
    14     6     7    2
    15     7     8    1
    16     8     9    2
    17     8    10    1
    18    10    11    1
    19    11    12    1
    20    12    13    1
    21    12    14    1
    22    14    15    1
    23    14    16    1
    24    16    17    1
    25    17    18    1
    26    17    19    1
    27    19    20    1
    28    20    21    1
    29    21    22    1
    30    22    23    1
    31    36    37    1
    32    37    38    1
    33    37    39    1
    34    37    40    1
    35    22     1    1
    36    22     4    1
    37    19     6    1
    38    17    10    1
    39    32    33    1
    40    29    30    1
    41     5    24    1
    42    13    25    1
    43    15    26    1
    44    40    41    1
@<TRIPOS>MOLECULE
*****
 41 44 0 0 0
SMALL
GASTEIGER

@<TRIPOS>ATOM
      1 C          63.7674   90.3512   13.9648 C.3     1  UNL1        0.0296
      2 C          63.1757   90.8996   12.7003 C.3     1  UNL1        0.0052
      3 C          62.8009   89.7417   11.8235 C.3     1  UNL1        0.0309
      4 C          63.1610   88.4775   12.5461 C.3     1  UNL1        0.1033
      5 O          62.5477   88.2547   11.1955 O.3     1  UNL1       -0.3830
      6 C          63.0222   87.0321   12.1701 C.2     1  UNL1       -0.0179
      7 C          62.4249   86.6554   10.8467 C.2     1  UNL1        0.0311
      8 C          62.2861   85.2100   10.4707 C.2     1  UNL1        0.1722
      9 O          61.6888   84.8334    9.1473 O.2     1  UNL1       -0.2914
     10 C          62.7446   84.1412   11.4181 C.3     1  UNL1        0.0647
     11 C          62.6058   82.6957   11.0420 C.3     1  UNL1        0.0394
     12 C          63.0642   81.6270   11.9893 C.3     1  UNL1        0.1376
     13 O          62.9254   80.1815   11.6133 O.3     1  UNL1       -0.3820
     14 C          63.6616   82.0036   13.3127 C.3     1  UNL1        0.1372
     15 O          64.1201   80.9348   14.2601 O.3     1  UNL1       -0.3820
     16 C          63.8004   83.4491   13.6887 C.3     1  UNL1        0.0325
     17 C          63.3419   84.5178   12.7414 C.3     1  UNL1        0.0129
     18 C          63.9392   84.8945   14.0648 C.3     1  UNL1        0.0008
     19 C          63.4807   85.9633   13.1175 C.3     1  UNL1        0.0211
     20 C          64.0780   86.3400   14.4408 C.3     1  UNL1        0.0042
     21 C          64.2168   87.7855   14.8169 C.3     1  UNL1        0.0030
     22 C          63.7583   88.8542   13.8695 C.3     1  UNL1        0.0281
     23 C          64.3331   89.3805   15.1512 C.3     1  UNL1        0.0027
     24 H          62.4894   87.3025   11.0201 H       1  UNL1        0.2107
     25 H          62.5239   80.1136   10.7329 H       1  UNL1        0.2104
     26 H          63.9598   80.0630   13.8661 H       1  UNL1        0.2104
     27 C          64.2784   91.1579   15.1215 C.3     1  UNL1        0.1129
     28 C          64.7895   91.9647   16.2782 C.3     1  UNL1        0.0318
     29 O          63.1122   90.7080   15.9506 O.3     1  UNL1       -0.3844
     30 H          63.1724   91.1029   16.8345 H       1  UNL1        0.2103
     31 C          65.4447   91.6079   14.2924 C.3     1  UNL1        0.1349
     32 O          65.2204   92.4823   13.0944 O.3     1  UNL1       -0.3821
     33 H          64.2720   92.6619   12.9982 H       1  UNL1        0.2104
     34 C          66.8353   91.1834   14.6612 C.3     1  UNL1        0.0340
     35 C          68.8887   91.8853   13.2326 C.3     1  UNL1        0.0025
     36 C          67.9916   92.1064   14.4143 C.3     1  UNL1        0.0272
     37 C          68.2508   93.2505   15.3490 C.3     1  UNL1        0.0885
     38 C          69.1156   92.3636   16.1948 C.3     1  UNL1        0.0293
     39 C          67.3860   94.1375   14.5033 C.3     1  UNL1        0.0293
     40 O          68.5100   94.3947   16.2839 O.3     1  UNL1       -0.3867
     41 H          69.0932   94.1005   17.0010 H       1  UNL1        0.2102
@<TRIPOS>BOND
     1    36    35    1
     2    36    34    1
     3    34    31    1
     4    31    32    1
     5    31    27    1
     6    27    28    1
     7    27    29    1
     8    27     1    1
     9     1     2    1
    10     2     3    1
    11     3     4    1
    12     4     5    1
    13     4     6    1
    14     6     7    2
    15     7     8    1
    16     8     9    2
    17     8    10    1
    18    10    11    1
    19    11    12    1
    20    12    13    1
    21    12    14    1
    22    14    15    1
    23    14    16    1
    24    16    17    1
    25    17    18    1
    26    17    19    1
    27    19    20    1
    28    20    21    1
    29    21    22    1
    30    22    23    1
    31    36    37    1
    32    37    38    1
    33    37    39    1
    34    37    40    1
    35    22     1    1
    36    22     4    1
    37    19     6    1
    38    17    10    1
    39    32    33    1
    40    29    30    1
    41     5    24    1
    42    13    25    1
    43    15    26    1
    44    40    41    1
@<TRIPOS>MOLECULE
*****
 41 44 0 0 0
SMALL
GASTEIGER

@<TRIPOS>ATOM
      1 C          64.7612   90.3759   14.6816 C.3     1  UNL1        0.0296
      2 C          65.1489   89.0472   15.2596 C.3     1  UNL1        0.0052
      3 C          64.5240   87.9749   14.4172 C.3     1  UNL1        0.0309
      4 C          63.7500   88.6410   13.3184 C.3     1  UNL1        0.1033
      5 O          63.6942   87.1425   13.2822 O.3     1  UNL1       -0.3830
      6 C          62.9306   88.0880   12.1902 C.2     1  UNL1       -0.0179
      7 C          62.7840   86.6042   12.0268 C.2     1  UNL1        0.0311
      8 C          61.9646   86.0512   10.8986 C.2     1  UNL1        0.1722
      9 O          61.8181   84.5673   10.7353 O.2     1  UNL1       -0.2914
     10 C          61.2919   86.9821    9.9338 C.3     1  UNL1        0.0647
     11 C          60.4725   86.4290    8.8056 C.3     1  UNL1        0.0394
     12 C          59.7998   87.3599    7.8408 C.3     1  UNL1        0.1376
     13 O          58.9804   86.8069    6.7126 O.3     1  UNL1       -0.3820
     14 C          59.9464   88.8438    8.0042 C.3     1  UNL1        0.1372
     15 O          59.2736   89.7747    7.0393 O.3     1  UNL1       -0.3820
     16 C          60.7658   89.3967    9.1324 C.3     1  UNL1        0.0325
     17 C          61.4385   88.4658   10.0972 C.3     1  UNL1        0.0129
     18 C          61.5851   89.9497   10.2606 C.3     1  UNL1        0.0008
     19 C          62.2579   89.0189   11.2254 C.3     1  UNL1        0.0211
     20 C          62.4045   90.5027   11.3888 C.3     1  UNL1        0.0042
     21 C          63.2239   91.0557   12.5170 C.3     1  UNL1        0.0030
     22 C          63.8966   90.1248   13.4818 C.3     1  UNL1        0.0281
     23 C          64.1324   91.5777   13.7706 C.3     1  UNL1        0.0027
     24 H          63.1505   86.8572   12.5313 H       1  UNL1        0.2107
     25 H          58.9890   85.8378    6.7515 H       1  UNL1        0.2104
     26 H          58.7886   89.2584    6.3767 H       1  UNL1        0.2104
     27 C          65.1669   91.7197   15.2104 C.3     1  UNL1        0.1129
     28 C          65.5725   93.0635   15.7392 C.3     1  UNL1        0.0318
     29 O          63.8794   91.8074   15.9751 O.3     1  UNL1       -0.3844
     30 H          63.8493   92.6456   16.4624 H       1  UNL1        0.2103
     31 C          66.4543   91.6320   14.4456 C.3     1  UNL1        0.1349
     32 O          67.2770   90.3791   14.5032 O.3     1  UNL1       -0.3821
     33 H          66.8376   89.7297   15.0743 H       1  UNL1        0.2104
     34 C          66.9189   92.7972   13.6232 C.3     1  UNL1        0.0340
     35 C          67.8866   91.7518   11.4504 C.3     1  UNL1        0.0025
     36 C          66.9394   92.6983   12.1266 C.3     1  UNL1        0.0272
     37 C          66.0128   93.5458   11.3062 C.3     1  UNL1        0.0885
     38 C          66.2899   94.7163   12.2024 C.3     1  UNL1        0.0293
     39 C          65.7357   92.3753   10.4101 C.3     1  UNL1        0.0293
     40 O          65.0861   94.3934   10.4858 O.3     1  UNL1       -0.3867
     41 H          65.0554   95.2897   10.8554 H       1  UNL1        0.2102
@<TRIPOS>BOND
     1    36    35    1
     2    36    34    1
     3    34    31    1
     4    31    32    1
     5    31    27    1
     6    27    28    1
     7    27    29    1
     8    27     1    1
     9     1     2    1
    10     2     3    1
    11     3     4    1
    12     4     5    1
    13     4     6    1
    14     6     7    2
    15     7     8    1
    16     8     9    2
    17     8    10    1
    18    10    11    1
    19    11    12    1
    20    12    13    1
    21    12    14    1
    22    14    15    1
    23    14    16    1
    24    16    17    1
    25    17    18    1
    26    17    19    1
    27    19    20    1
    28    20    21    1
    29    21    22    1
    30    22    23    1
    31    36    37    1
    32    37    38    1
    33    37    39    1
    34    37    40    1
    35    22     1    1
    36    22     4    1
    37    19     6    1
    38    17    10    1
    39    32    33    1
    40    29    30    1
    41     5    24    1
    42    13    25    1
    43    15    26    1
    44    40    41    1
@<TRIPOS>MOLECULE
*****
 41 44 0 0 0
SMALL
GASTEIGER

@<TRIPOS>ATOM
      1 C          62.7938   85.2051   13.5276 C.3     1  UNL1        0.0296
      2 C          62.0701   85.1569   12.2147 C.3     1  UNL1        0.0052
      3 C          62.2289   86.4915   11.5485 C.3     1  UNL1        0.0309
      4 C          63.0508   87.3645   12.4498 C.3     1  UNL1        0.1033
      5 O          62.6251   88.0322   11.1759 O.3     1  UNL1       -0.3830
      6 C          63.5264   88.7807   12.3148 C.2     1  UNL1       -0.0179
      7 C          63.1773   89.5757   11.0916 C.2     1  UNL1        0.0311
      8 C          63.6529   90.9919   10.9566 C.2     1  UNL1        0.1722
      9 O          63.3037   91.7869    9.7334 O.2     1  UNL1       -0.2914
     10 C          64.4776   91.6130   12.0447 C.3     1  UNL1        0.0647
     11 C          64.9532   93.0292   11.9096 C.3     1  UNL1        0.0394
     12 C          65.7780   93.6504   12.9977 C.3     1  UNL1        0.1376
     13 O          66.2536   95.0665   12.8627 O.3     1  UNL1       -0.3820
     14 C          66.1271   92.8553   14.2208 C.3     1  UNL1        0.1372
     15 O          66.9519   93.4765   15.3090 O.3     1  UNL1       -0.3820
     16 C          65.6515   91.4392   14.3559 C.3     1  UNL1        0.0325
     17 C          64.8268   90.8180   13.2678 C.3     1  UNL1        0.0129
     18 C          65.1759   90.0230   14.4909 C.3     1  UNL1        0.0008
     19 C          64.3512   89.4018   13.4029 C.3     1  UNL1        0.0211
     20 C          64.7003   88.6068   14.6259 C.3     1  UNL1        0.0042
     21 C          64.2247   87.1906   14.7610 C.3     1  UNL1        0.0030
     22 C          63.4000   86.5695   13.6729 C.3     1  UNL1        0.0281
     23 C          63.6687   85.6559   14.8318 C.3     1  UNL1        0.0027
     24 H          62.9663   88.9400   11.1570 H       1  UNL1        0.2107
     25 H          65.9429   95.4330   12.0200 H       1  UNL1        0.2104
     26 H          67.1742   94.3888   15.0654 H       1  UNL1        0.2104
     27 C          62.8939   84.0855   14.5209 C.3     1  UNL1        0.1129
     28 C          62.9940   82.9659   15.5141 C.3     1  UNL1        0.0318
     29 O          61.9130   84.7883   15.4119 O.3     1  UNL1       -0.3844
     30 H          61.7626   84.2572   16.2095 H       1  UNL1        0.2103
     31 C          63.8748   83.3827   13.6298 C.3     1  UNL1        0.1349
     32 O          65.0795   84.1143   13.1163 O.3     1  UNL1       -0.3821
     33 H          65.0726   85.0243   13.4522 H       1  UNL1        0.2104
     34 C          63.6511   81.9484   13.2523 C.3     1  UNL1        0.0340
     35 C          63.6593   82.5860   10.7337 C.3     1  UNL1        0.0025
     36 C          63.4159   81.5783   11.8179 C.3     1  UNL1        0.0272
     37 C          62.9373   80.2005   11.4675 C.3     1  UNL1        0.0885
     38 C          63.2486   80.4596   10.0233 C.3     1  UNL1        0.0293
     39 C          62.6260   79.9414   12.9118 C.3     1  UNL1        0.0293
     40 O          62.4587   78.8227   11.1171 O.3     1  UNL1       -0.3867
     41 H          62.5454   78.6838   10.1611 H       1  UNL1        0.2102
@<TRIPOS>BOND
     1    36    35    1
     2    36    34    1
     3    34    31    1
     4    31    32    1
     5    31    27    1
     6    27    28    1
     7    27    29    1
     8    27     1    1
     9     1     2    1
    10     2     3    1
    11     3     4    1
    12     4     5    1
    13     4     6    1
    14     6     7    2
    15     7     8    1
    16     8     9    2
    17     8    10    1
    18    10    11    1
    19    11    12    1
    20    12    13    1
    21    12    14    1
    22    14    15    1
    23    14    16    1
    24    16    17    1
    25    17    18    1
    26    17    19    1
    27    19    20    1
    28    20    21    1
    29    21    22    1
    30    22    23    1
    31    36    37    1
    32    37    38    1
    33    37    39    1
    34    37    40    1
    35    22     1    1
    36    22     4    1
    37    19     6    1
    38    17    10    1
    39    32    33    1
    40    29    30    1
    41     5    24    1
    42    13    25    1
    43    15    26    1
    44    40    41    1
@<TRIPOS>MOLECULE
*****
 41 44 0 0 0
SMALL
GASTEIGER

@<TRIPOS>ATOM
      1 C          60.8678   89.9156   11.0807 C.3     1  UNL1        0.0296
      2 C          61.1138   90.3670    9.6716 C.3     1  UNL1        0.0052
      3 C          62.4573   91.0326    9.6259 C.3     1  UNL1        0.0309
      4 C          63.0416   90.9926   11.0068 C.3     1  UNL1        0.1033
      5 O          63.9210   91.6601    9.9914 O.3     1  UNL1       -0.3830
      6 C          64.3413   91.4955   11.5617 C.2     1  UNL1       -0.0179
      7 C          65.3236   92.1859   10.6626 C.2     1  UNL1        0.0311
      8 C          66.6233   92.6889   11.2175 C.2     1  UNL1        0.1722
      9 O          67.6056   93.3792   10.3183 O.2     1  UNL1       -0.2914
     10 C          66.9406   92.5015   12.6715 C.3     1  UNL1        0.0647
     11 C          68.2403   93.0045   13.2264 C.3     1  UNL1        0.0394
     12 C          68.5576   92.8171   14.6804 C.3     1  UNL1        0.1376
     13 O          69.8572   93.3200   15.2353 O.3     1  UNL1       -0.3820
     14 C          67.5752   92.1267   15.5795 C.3     1  UNL1        0.1372
     15 O          67.8925   91.9393   17.0337 O.3     1  UNL1       -0.3820
     16 C          66.2756   91.6238   15.0246 C.3     1  UNL1        0.0325
     17 C          65.9583   91.8112   13.5706 C.3     1  UNL1        0.0129
     18 C          64.9759   91.1208   14.4697 C.3     1  UNL1        0.0008
     19 C          64.6585   91.3081   13.0157 C.3     1  UNL1        0.0211
     20 C          63.6763   90.6178   13.9148 C.3     1  UNL1        0.0042
     21 C          62.3765   90.1148   13.3599 C.3     1  UNL1        0.0030
     22 C          62.0593   90.3022   11.9059 C.3     1  UNL1        0.0281
     23 C          60.9847   89.5966   12.6789 C.3     1  UNL1        0.0027
     24 H          64.7392   91.9585   10.4185 H       1  UNL1        0.2107
     25 H          70.3714   93.7374   14.5266 H       1  UNL1        0.2104
     26 H          68.7642   92.3190   17.2259 H       1  UNL1        0.2104
     27 C          59.6451   89.2027   11.5774 C.3     1  UNL1        0.1129
     28 C          58.4223   88.4899   12.0741 C.3     1  UNL1        0.0318
     29 O          59.1295   90.4883   12.1532 O.3     1  UNL1       -0.3844
     30 H          58.2729   90.3308   12.5802 H       1  UNL1        0.2103
     31 C          60.1606   87.9172   11.0016 C.3     1  UNL1        0.1349
     32 O          60.7714   86.8840   11.9014 O.3     1  UNL1       -0.3821
     33 H          60.7551   87.2026   12.8174 H       1  UNL1        0.2104
     34 C          60.0655   87.6648    9.5261 C.3     1  UNL1        0.0340
     35 C          62.5425   86.9290    9.2560 C.3     1  UNL1        0.0025
     36 C          61.1049   86.8292    8.8395 C.3     1  UNL1        0.0272
     37 C          60.7068   85.8938    7.7366 C.3     1  UNL1        0.0885
     38 C          62.0780   85.2863    7.7568 C.3     1  UNL1        0.0293
     39 C          59.3355   86.5014    7.7164 C.3     1  UNL1        0.0293
     40 O          60.3086   84.9584    6.6336 O.3     1  UNL1       -0.3867
     41 H          61.0589   84.3864    6.4082 H       1  UNL1        0.2102
@<TRIPOS>BOND
     1    36    35    1
     2    36    34    1
     3    34    31    1
     4    31    32    1
     5    31    27    1
     6    27    28    1
     7    27    29    1
     8    27     1    1
     9     1     2    1
    10     2     3    1
    11     3     4    1
    12     4     5    1
    13     4     6    1
    14     6     7    2
    15     7     8    1
    16     8     9    2
    17     8    10    1
    18    10    11    1
    19    11    12    1
    20    12    13    1
    21    12    14    1
    22    14    15    1
    23    14    16    1
    24    16    17    1
    25    17    18    1
    26    17    19    1
    27    19    20    1
    28    20    21    1
    29    21    22    1
    30    22    23    1
    31    36    37    1
    32    37    38    1
    33    37    39    1
    34    37    40    1
    35    22     1    1
    36    22     4    1
    37    19     6    1
    38    17    10    1
    39    32    33    1
    40    29    30    1
    41     5    24    1
    42    13    25    1
    43    15    26    1
    44    40    41    1
