@<TRIPOS>MOLECULE
*****
 25 27 0 0 0
SMALL
GASTEIGER

@<TRIPOS>ATOM
      1 C          62.7449   89.5003   10.5943 C.3     1  UNL1        0.1795
      2 C          62.5330   89.0904   12.0216 C.3     1  UNL1        0.1772
      3 O          62.1130   87.6505   12.0329 O.3     1  UNL1       -0.3267
      4 C          62.0654   87.1703   10.6127 C.3     1  UNL1        0.2314
      5 O          62.4559   88.3135    9.7236 O.3     1  UNL1       -0.3266
      6 C          61.9302   86.4183    9.3218 C.ar    1  UNL1        0.0410
      7 C          63.0837   85.6159    8.7970 C.ar    1  UNL1        0.0022
      8 C          62.9485   84.8639    7.5062 C.ar    1  UNL1        0.0113
      9 C          61.6598   84.9142    6.7403 C.ar    1  UNL1        0.0585
     10 CL         61.5246   84.1622    5.4494 Cl      1  UNL1       -0.0822
     11 C          60.5062   85.7166    7.2652 C.ar    1  UNL1        0.0226
     12 C          60.6415   86.4686    8.5559 C.ar    1  UNL1        0.0591
     13 CL         59.4879   87.2711    9.0809 Cl      1  UNL1       -0.0824
     14 C          63.1710   90.8583   10.1209 C.3     1  UNL1        0.2063
     15 O          63.4143   91.9564   11.1134 O.3     1  UNL1       -0.2216
     16 C          66.1658   92.3886   12.2281 C.3     1  UNL1        0.2097
     17 S          64.7900   92.1725   11.6707 S.O2    1  UNL1        0.0957
     18 O          64.2794   91.8700   13.0483 O.2     1  UNL1       -0.1464
     19 O          65.3006   92.4749   10.2931 O.2     1  UNL1       -0.1464
     20 C          61.6466   85.8699   11.2319 C.3     1  UNL1        0.1897
     21 N          62.6246   85.0791   12.0492 N.ar    1  UNL1       -0.2246
     22 C          63.1402   83.7084   11.7241 C.ar    1  UNL1        0.1974
     23 N          64.0931   83.3022   12.8090 N.ar    1  UNL1       -0.2007
     24 C          64.1664   84.4218   13.8046 C.ar    1  UNL1        0.2210
     25 N          63.2588   85.5199   13.3350 N.ar    1  UNL1       -0.1450
@<TRIPOS>BOND
     1    16    17    1
     2    17    18    2
     3    17    19    2
     4    17    15    1
     5    15    14    1
     6    14     1    1
     7     1     2    1
     8     2     3    1
     9     3     4    1
    10     4    20    1
    11    20    21    1
    12    21    22   ar
    13    22    23   ar
    14    23    24   ar
    15    24    25   ar
    16     4     6    1
    17     6     7   ar
    18     7     8   ar
    19     8     9   ar
    20     9    10    1
    21     9    11   ar
    22    11    12   ar
    23    12    13    1
    24     4     5    1
    25     5     1    1
    26    25    21   ar
    27    12     6   ar
@<TRIPOS>MOLECULE
*****
 25 27 0 0 0
SMALL
GASTEIGER

@<TRIPOS>ATOM
      1 C          62.0291   86.2236   10.9791 C.3     1  UNL1        0.1795
      2 C          62.7188   87.2486   11.8297 C.3     1  UNL1        0.1772
      3 O          63.3222   86.5432   13.0079 O.3     1  UNL1       -0.3267
      4 C          63.0054   85.0822   12.8856 C.3     1  UNL1        0.2314
      5 O          62.2062   84.8846   11.6317 O.3     1  UNL1       -0.3266
      6 C          62.8489   83.5975   13.0318 C.ar    1  UNL1        0.0410
      7 C          61.9148   83.0399   14.0645 C.ar    1  UNL1        0.0022
      8 C          61.7583   81.5553   14.2107 C.ar    1  UNL1        0.0113
      9 C          62.5358   80.6283   13.3240 C.ar    1  UNL1        0.0585
     10 CL         62.3793   79.1436   13.4702 Cl      1  UNL1       -0.0822
     11 C          63.4698   81.1859   12.2913 C.ar    1  UNL1        0.0226
     12 C          63.6263   82.6705   12.1451 C.ar    1  UNL1        0.0591
     13 CL         64.5604   83.2282   11.1123 Cl      1  UNL1       -0.0824
     14 C          61.2917   86.4906    9.7005 C.3     1  UNL1        0.2063
     15 O          60.0702   87.3612    9.7068 O.3     1  UNL1       -0.2216
     16 C          59.2767   88.8505    7.2264 C.3     1  UNL1        0.2097
     17 S          59.6735   88.1059    8.4666 S.O2    1  UNL1        0.0957
     18 O          60.6365   89.2014    8.8163 O.2     1  UNL1       -0.1464
     19 O          58.7104   87.0103    8.1169 O.2     1  UNL1       -0.1464
     20 C          63.7719   84.9694   14.1700 C.3     1  UNL1        0.1897
     21 N          63.2901   85.6863   15.3963 N.ar    1  UNL1       -0.2246
     22 C          62.3202   85.1501   16.4072 C.ar    1  UNL1        0.1974
     23 N          62.1243   86.1978   17.4627 N.ar    1  UNL1       -0.2007
     24 C          62.9731   87.3814   17.1042 C.ar    1  UNL1        0.2210
     25 N          63.6936   87.0653   15.8271 N.ar    1  UNL1       -0.1450
@<TRIPOS>BOND
     1    16    17    1
     2    17    18    2
     3    17    19    2
     4    17    15    1
     5    15    14    1
     6    14     1    1
     7     1     2    1
     8     2     3    1
     9     3     4    1
    10     4    20    1
    11    20    21    1
    12    21    22   ar
    13    22    23   ar
    14    23    24   ar
    15    24    25   ar
    16     4     6    1
    17     6     7   ar
    18     7     8   ar
    19     8     9   ar
    20     9    10    1
    21     9    11   ar
    22    11    12   ar
    23    12    13    1
    24     4     5    1
    25     5     1    1
    26    25    21   ar
    27    12     6   ar
@<TRIPOS>MOLECULE
*****
 25 27 0 0 0
SMALL
GASTEIGER

@<TRIPOS>ATOM
      1 C          62.6813   90.4603   11.8855 C.3     1  UNL1        0.1795
      2 C          63.8856   91.3274   11.6672 C.3     1  UNL1        0.1772
      3 O          64.8553   91.0628   12.7805 O.3     1  UNL1       -0.3267
      4 C          64.2504   90.0321   13.6869 C.3     1  UNL1        0.2314
      5 O          62.9067   89.6597   13.1338 O.3     1  UNL1       -0.3266
      6 C          63.9115   89.0356   14.7558 C.ar    1  UNL1        0.0410
      7 C          64.0958   87.5692   14.4997 C.ar    1  UNL1        0.0022
      8 C          63.7569   86.5729   15.5685 C.ar    1  UNL1        0.0113
      9 C          63.2338   87.0429   16.8934 C.ar    1  UNL1        0.0585
     10 CL         62.8950   86.0465   17.9623 Cl      1  UNL1       -0.0822
     11 C          63.0496   88.5094   17.1495 C.ar    1  UNL1        0.0226
     12 C          63.3884   89.5057   16.0807 C.ar    1  UNL1        0.0591
     13 CL         63.2042   90.9722   16.3368 Cl      1  UNL1       -0.0824
     14 C          61.4650   90.4037   11.0094 C.3     1  UNL1        0.2063
     15 O          60.4769   89.2866   11.1692 O.3     1  UNL1       -0.2216
     16 C          60.6404   86.8738    9.3940 C.3     1  UNL1        0.2097
     17 S          60.5586   88.0802   10.2816 S.O2    1  UNL1        0.0957
     18 O          60.3119   88.9461    9.0819 O.2     1  UNL1       -0.1464
     19 O          60.8054   87.2142   11.4813 O.2     1  UNL1       -0.1464
     20 C          65.5232   90.1961   14.4635 C.3     1  UNL1        0.1897
     21 N          66.2762   91.4920   14.4041 N.ar    1  UNL1       -0.2246
     22 C          67.6866   91.6711   13.9258 C.ar    1  UNL1        0.1974
     23 N          68.0331   93.1262   14.0388 N.ar    1  UNL1       -0.2007
     24 C          66.8369   93.8464   14.5868 C.ar    1  UNL1        0.2210
     25 N          65.7511   92.8364   14.8127 N.ar    1  UNL1       -0.1450
@<TRIPOS>BOND
     1    16    17    1
     2    17    18    2
     3    17    19    2
     4    17    15    1
     5    15    14    1
     6    14     1    1
     7     1     2    1
     8     2     3    1
     9     3     4    1
    10     4    20    1
    11    20    21    1
    12    21    22   ar
    13    22    23   ar
    14    23    24   ar
    15    24    25   ar
    16     4     6    1
    17     6     7   ar
    18     7     8   ar
    19     8     9   ar
    20     9    10    1
    21     9    11   ar
    22    11    12   ar
    23    12    13    1
    24     4     5    1
    25     5     1    1
    26    25    21   ar
    27    12     6   ar
@<TRIPOS>MOLECULE
*****
 25 27 0 0 0
SMALL
GASTEIGER

@<TRIPOS>ATOM
      1 C          64.0760   86.3791   14.0254 C.3     1  UNL1        0.1795
      2 C          64.4313   84.9624   14.3669 C.3     1  UNL1        0.1772
      3 O          63.8493   84.0709   13.3103 O.3     1  UNL1       -0.3267
      4 C          63.1344   84.9366   12.3156 C.3     1  UNL1        0.2314
      5 O          63.2744   86.3632   12.7576 O.3     1  UNL1       -0.3266
      6 C          62.3561   85.5301   11.1789 C.ar    1  UNL1        0.0410
      7 C          61.2340   86.4860   11.4564 C.ar    1  UNL1        0.0022
      8 C          60.4558   87.0793   10.3197 C.ar    1  UNL1        0.0113
      9 C          60.7997   86.7168    8.9054 C.ar    1  UNL1        0.0585
     10 CL         60.0214   87.3103    7.7686 Cl      1  UNL1       -0.0822
     11 C          61.9218   85.7609    8.6278 C.ar    1  UNL1        0.0226
     12 C          62.7000   85.1676    9.7645 C.ar    1  UNL1        0.0591
     13 CL         63.8222   84.2116    9.4870 Cl      1  UNL1       -0.0824
     14 C          64.4556   87.5977   14.8133 C.3     1  UNL1        0.2063
     15 O          63.5482   88.7920   14.8311 O.3     1  UNL1       -0.2216
     16 C          63.9512   91.0116   12.8535 C.3     1  UNL1        0.2097
     17 S          63.7497   89.9018   13.8423 S.O2    1  UNL1        0.0957
     18 O          62.3760   89.6598   13.2907 O.2     1  UNL1       -0.1464
     19 O          65.1234   90.1439   14.3938 O.2     1  UNL1       -0.1464
     20 C          62.8316   83.6342   11.6360 C.3     1  UNL1        0.1897
     21 N          62.5183   82.4165   12.4540 N.ar    1  UNL1       -0.2246
     22 C          62.8594   81.0008   12.0940 C.ar    1  UNL1        0.1974
     23 N          62.3608   80.1100   13.1931 N.ar    1  UNL1       -0.2007
     24 C          61.7116   80.9752   14.2323 C.ar    1  UNL1        0.2210
     25 N          61.8089   82.4006   13.7755 N.ar    1  UNL1       -0.1450
@<TRIPOS>BOND
     1    16    17    1
     2    17    18    2
     3    17    19    2
     4    17    15    1
     5    15    14    1
     6    14     1    1
     7     1     2    1
     8     2     3    1
     9     3     4    1
    10     4    20    1
    11    20    21    1
    12    21    22   ar
    13    22    23   ar
    14    23    24   ar
    15    24    25   ar
    16     4     6    1
    17     6     7   ar
    18     7     8   ar
    19     8     9   ar
    20     9    10    1
    21     9    11   ar
    22    11    12   ar
    23    12    13    1
    24     4     5    1
    25     5     1    1
    26    25    21   ar
    27    12     6   ar
@<TRIPOS>MOLECULE
*****
 25 27 0 0 0
SMALL
GASTEIGER

@<TRIPOS>ATOM
      1 C          63.4065   89.3870   12.6145 C.3     1  UNL1        0.1795
      2 C          63.9595   88.4013   13.6006 C.3     1  UNL1        0.1772
      3 O          63.5207   87.0297   13.1808 O.3     1  UNL1       -0.3267
      4 C          62.6964   87.1678   11.9353 C.3     1  UNL1        0.2314
      5 O          62.6258   88.6247   11.5853 O.3     1  UNL1       -0.3266
      6 C          61.8498   86.9936   10.7093 C.ar    1  UNL1        0.0410
      7 C          62.3642   86.1924    9.5502 C.ar    1  UNL1        0.0022
      8 C          61.5176   86.0183    8.3243 C.ar    1  UNL1        0.0113
      9 C          60.1567   86.6454    8.2574 C.ar    1  UNL1        0.0585
     10 CL         59.3101   86.4713    7.0314 Cl      1  UNL1       -0.0822
     11 C          59.6423   87.4466    9.4164 C.ar    1  UNL1        0.0226
     12 C          60.4888   87.6208   10.6423 C.ar    1  UNL1        0.0591
     13 CL         59.9744   88.4220   11.8015 Cl      1  UNL1       -0.0824
     14 C          63.6001   90.8740   12.6512 C.3     1  UNL1        0.2063
     15 O          64.2946   91.5114   13.8180 O.3     1  UNL1       -0.2216
     16 C          67.1603   92.3648   13.5746 C.3     1  UNL1        0.2097
     17 S          65.7275   91.9381   13.6963 S.O2    1  UNL1        0.0957
     18 O          65.3298   92.9906   12.7043 O.2     1  UNL1       -0.1464
     19 O          66.1252   90.8856   14.6883 O.2     1  UNL1       -0.1464
     20 C          62.5900   85.6745   12.0290 C.3     1  UNL1        0.1897
     21 N          63.0089   84.9702   13.2853 N.ar    1  UNL1       -0.2246
     22 C          64.3228   84.2838   13.5151 C.ar    1  UNL1        0.1974
     23 N          64.3134   83.7179   14.9042 N.ar    1  UNL1       -0.2007
     24 C          62.9938   84.0545   15.5330 C.ar    1  UNL1        0.2210
     25 N          62.1876   84.8285   14.5324 N.ar    1  UNL1       -0.1450
@<TRIPOS>BOND
     1    16    17    1
     2    17    18    2
     3    17    19    2
     4    17    15    1
     5    15    14    1
     6    14     1    1
     7     1     2    1
     8     2     3    1
     9     3     4    1
    10     4    20    1
    11    20    21    1
    12    21    22   ar
    13    22    23   ar
    14    23    24   ar
    15    24    25   ar
    16     4     6    1
    17     6     7   ar
    18     7     8   ar
    19     8     9   ar
    20     9    10    1
    21     9    11   ar
    22    11    12   ar
    23    12    13    1
    24     4     5    1
    25     5     1    1
    26    25    21   ar
    27    12     6   ar
@<TRIPOS>MOLECULE
*****
 25 27 0 0 0
SMALL
GASTEIGER

@<TRIPOS>ATOM
      1 C          62.8555   89.3978   12.1639 C.3     1  UNL1        0.1795
      2 C          61.5348   89.9291   11.6912 C.3     1  UNL1        0.1772
      3 O          60.7720   88.7938   11.0754 O.3     1  UNL1       -0.3267
      4 C          61.6213   87.5608   11.1675 C.3     1  UNL1        0.2314
      5 O          62.9089   87.9341   11.8402 O.3     1  UNL1       -0.3266
      6 C          62.2278   86.1898   11.1167 C.ar    1  UNL1        0.0410
      7 C          62.2757   85.3446   12.3549 C.ar    1  UNL1        0.0022
      8 C          62.8823   83.9736   12.3040 C.ar    1  UNL1        0.0113
      9 C          63.4409   83.4480   11.0150 C.ar    1  UNL1        0.0585
     10 CL         64.0474   82.0770   10.9642 Cl      1  UNL1       -0.0822
     11 C          63.3929   84.2932    9.7768 C.ar    1  UNL1        0.0226
     12 C          62.7864   85.6642    9.8276 C.ar    1  UNL1        0.0591
     13 CL         62.7384   86.5095    8.5894 Cl      1  UNL1       -0.0824
     14 C          63.9335   90.1909   12.8413 C.3     1  UNL1        0.2063
     15 O          64.5734   89.6698   14.0938 O.3     1  UNL1       -0.2216
     16 C          62.9594   89.4180   16.6100 C.3     1  UNL1        0.2097
     17 S          63.7664   89.5439   15.3519 S.O2    1  UNL1        0.0957
     18 O          63.6069   91.0347   15.3988 O.2     1  UNL1       -0.1464
     19 O          63.9260   88.0532   15.3051 O.2     1  UNL1       -0.1464
     20 C          60.4604   86.9010   10.4842 C.3     1  UNL1        0.1897
     21 N          59.9128   87.4769    9.2120 N.ar    1  UNL1       -0.2246
     22 C          58.9618   86.7954    8.2732 C.ar    1  UNL1        0.1974
     23 N          58.6813   87.7327    7.1362 N.ar    1  UNL1       -0.2007
     24 C          59.4590   88.9935    7.3722 C.ar    1  UNL1        0.2210
     25 N          60.2201   88.8353    8.6551 N.ar    1  UNL1       -0.1450
@<TRIPOS>BOND
     1    16    17    1
     2    17    18    2
     3    17    19    2
     4    17    15    1
     5    15    14    1
     6    14     1    1
     7     1     2    1
     8     2     3    1
     9     3     4    1
    10     4    20    1
    11    20    21    1
    12    21    22   ar
    13    22    23   ar
    14    23    24   ar
    15    24    25   ar
    16     4     6    1
    17     6     7   ar
    18     7     8   ar
    19     8     9   ar
    20     9    10    1
    21     9    11   ar
    22    11    12   ar
    23    12    13    1
    24     4     5    1
    25     5     1    1
    26    25    21   ar
    27    12     6   ar
@<TRIPOS>MOLECULE
*****
 25 27 0 0 0
SMALL
GASTEIGER

@<TRIPOS>ATOM
      1 C          63.6614   88.6945   13.0264 C.3     1  UNL1        0.1795
      2 C          64.1424   87.5459   13.8625 C.3     1  UNL1        0.1772
      3 O          63.5416   86.2872   13.3107 O.3     1  UNL1       -0.3267
      4 C          62.6892   86.6578   12.1334 C.3     1  UNL1        0.2314
      5 O          62.7632   88.1457   11.9577 O.3     1  UNL1       -0.3266
      6 C          61.7816   86.7202   10.9407 C.ar    1  UNL1        0.0410
      7 C          60.5800   87.6178   10.9587 C.ar    1  UNL1        0.0022
      8 C          59.6724   87.6801    9.7661 C.ar    1  UNL1        0.0113
      9 C          59.9665   86.8448    8.5554 C.ar    1  UNL1        0.0585
     10 CL         59.0589   86.9071    7.3627 Cl      1  UNL1       -0.0822
     11 C          61.1681   85.9471    8.5374 C.ar    1  UNL1        0.0226
     12 C          62.0756   85.8848    9.7300 C.ar    1  UNL1        0.0591
     13 CL         63.2773   84.9872    9.7121 Cl      1  UNL1       -0.0824
     14 C          64.0162   90.1384   13.2241 C.3     1  UNL1        0.2063
     15 O          65.1760   90.5129   14.0985 O.3     1  UNL1       -0.2216
     16 C          66.4804   93.1970   13.7922 C.3     1  UNL1        0.2097
     17 S          65.8282   91.8549   13.9454 S.O2    1  UNL1        0.0957
     18 O          66.9322   91.4233   14.8645 O.2     1  UNL1       -0.1464
     19 O          64.7242   92.2866   13.0262 O.2     1  UNL1       -0.1464
     20 C          62.4254   85.1831   12.0598 C.3     1  UNL1        0.1897
     21 N          62.7082   84.3105   13.2466 N.ar    1  UNL1       -0.2246
     22 C          63.6749   83.1642   13.2879 C.ar    1  UNL1        0.1974
     23 N          63.6380   82.5762   14.6673 N.ar    1  UNL1       -0.2007
     24 C          62.6486   83.3590   15.4786 C.ar    1  UNL1        0.2210
     25 N          62.0739   84.4308   14.6005 N.ar    1  UNL1       -0.1450
@<TRIPOS>BOND
     1    16    17    1
     2    17    18    2
     3    17    19    2
     4    17    15    1
     5    15    14    1
     6    14     1    1
     7     1     2    1
     8     2     3    1
     9     3     4    1
    10     4    20    1
    11    20    21    1
    12    21    22   ar
    13    22    23   ar
    14    23    24   ar
    15    24    25   ar
    16     4     6    1
    17     6     7   ar
    18     7     8   ar
    19     8     9   ar
    20     9    10    1
    21     9    11   ar
    22    11    12   ar
    23    12    13    1
    24     4     5    1
    25     5     1    1
    26    25    21   ar
    27    12     6   ar
@<TRIPOS>MOLECULE
*****
 25 27 0 0 0
SMALL
GASTEIGER

@<TRIPOS>ATOM
      1 C          63.0239   84.9708   13.6498 C.3     1  UNL1        0.1795
      2 C          63.9476   86.0378   14.1579 C.3     1  UNL1        0.1772
      3 O          63.7900   87.2438   13.2801 O.3     1  UNL1       -0.3267
      4 C          62.7688   86.9222   12.2295 C.3     1  UNL1        0.2314
      5 O          62.2953   85.5174   12.4580 O.3     1  UNL1       -0.3266
      6 C          61.8045   86.8931   11.0809 C.ar    1  UNL1        0.0410
      7 C          60.6348   87.8319   11.0597 C.ar    1  UNL1        0.0022
      8 C          59.6705   87.8027    9.9111 C.ar    1  UNL1        0.0113
      9 C          59.8759   86.8348    8.7838 C.ar    1  UNL1        0.0585
     10 CL         58.9116   86.8056    7.6352 Cl      1  UNL1       -0.0822
     11 C          61.0456   85.8960    8.8050 C.ar    1  UNL1        0.0226
     12 C          62.0099   85.9252    9.9536 C.ar    1  UNL1        0.0591
     13 CL         63.1797   84.9864    9.9748 Cl      1  UNL1       -0.0824
     14 C          62.8578   83.5981   14.2314 C.3     1  UNL1        0.2063
     15 O          63.7708   82.4872   13.8047 O.3     1  UNL1       -0.2216
     16 C          62.6538   80.0832   12.4001 C.3     1  UNL1        0.2097
     17 S          63.2123   81.2852   13.1024 S.O2    1  UNL1        0.0957
     18 O          63.5862   81.8846   11.7792 O.2     1  UNL1       -0.1464
     19 O          62.8384   80.6858   14.4256 O.2     1  UNL1       -0.1464
     20 C          63.0407   88.3210   11.7609 C.3     1  UNL1        0.1897
     21 N          63.3412   89.4008   12.7578 N.ar    1  UNL1       -0.2246
     22 C          64.0157   90.7082   12.4650 C.ar    1  UNL1        0.1974
     23 N          64.1113   91.4783   13.7487 N.ar    1  UNL1       -0.2007
     24 C          63.4958   90.6468   14.8349 C.ar    1  UNL1        0.2210
     25 N          63.0199   89.3628   14.2225 N.ar    1  UNL1       -0.1450
@<TRIPOS>BOND
     1    16    17    1
     2    17    18    2
     3    17    19    2
     4    17    15    1
     5    15    14    1
     6    14     1    1
     7     1     2    1
     8     2     3    1
     9     3     4    1
    10     4    20    1
    11    20    21    1
    12    21    22   ar
    13    22    23   ar
    14    23    24   ar
    15    24    25   ar
    16     4     6    1
    17     6     7   ar
    18     7     8   ar
    19     8     9   ar
    20     9    10    1
    21     9    11   ar
    22    11    12   ar
    23    12    13    1
    24     4     5    1
    25     5     1    1
    26    25    21   ar
    27    12     6   ar
@<TRIPOS>MOLECULE
*****
 25 27 0 0 0
SMALL
GASTEIGER

@<TRIPOS>ATOM
      1 C          62.5170   84.5884   12.5883 C.3     1  UNL1        0.1795
      2 C          63.2356   84.0394   11.3916 C.3     1  UNL1        0.1772
      3 O          63.0593   85.0083   10.2602 O.3     1  UNL1       -0.3267
      4 C          62.2316   86.1561   10.7576 C.3     1  UNL1        0.2314
      5 O          61.8964   85.8966   12.1965 O.3     1  UNL1       -0.3266
      6 C          61.4394   87.4132   10.9632 C.ar    1  UNL1        0.0410
      7 C          60.0467   87.5199   10.4164 C.ar    1  UNL1        0.0022
      8 C          59.2546   88.7769   10.6220 C.ar    1  UNL1        0.0113
      9 C          59.8551   89.9273   11.3744 C.ar    1  UNL1        0.0585
     10 CL         59.0628   91.1844   11.5799 Cl      1  UNL1       -0.0822
     11 C          61.2478   89.8206   11.9212 C.ar    1  UNL1        0.0226
     12 C          62.0399   88.5636   11.7156 C.ar    1  UNL1        0.0591
     13 CL         63.4327   88.4568   12.2624 Cl      1  UNL1       -0.0824
     14 C          62.4334   83.9426   13.9396 C.3     1  UNL1        0.2063
     15 O          63.2429   82.7150   14.2355 O.3     1  UNL1       -0.2216
     16 C          62.2764   80.0251   13.3242 C.3     1  UNL1        0.2097
     17 S          62.7596   81.3700   13.7799 S.O2    1  UNL1        0.0957
     18 O          64.0913   81.1079   13.1412 O.2     1  UNL1       -0.1464
     19 O          61.4280   81.6322   14.4185 O.2     1  UNL1       -0.1464
     20 C          62.4012   86.6784    9.3618 C.3     1  UNL1        0.1897
     21 N          61.9470   85.8555    8.1928 N.ar    1  UNL1       -0.2246
     22 C          60.5406   85.7504    7.6818 C.ar    1  UNL1        0.1974
     23 N          60.5439   84.8232    6.5027 N.ar    1  UNL1       -0.2007
     24 C          61.9523   84.3552    6.2850 C.ar    1  UNL1        0.2210
     25 N          62.8195   84.9933    7.3295 N.ar    1  UNL1       -0.1450
@<TRIPOS>BOND
     1    16    17    1
     2    17    18    2
     3    17    19    2
     4    17    15    1
     5    15    14    1
     6    14     1    1
     7     1     2    1
     8     2     3    1
     9     3     4    1
    10     4    20    1
    11    20    21    1
    12    21    22   ar
    13    22    23   ar
    14    23    24   ar
    15    24    25   ar
    16     4     6    1
    17     6     7   ar
    18     7     8   ar
    19     8     9   ar
    20     9    10    1
    21     9    11   ar
    22    11    12   ar
    23    12    13    1
    24     4     5    1
    25     5     1    1
    26    25    21   ar
    27    12     6   ar
