@<TRIPOS>MOLECULE
*****
 31 35 0 0 0
SMALL
GASTEIGER

@<TRIPOS>ATOM
      1 C          60.4055   87.3810    8.0125 C.3     1  UNL1        0.0899
      2 N          61.1721   86.6593    9.0810 N.3     1  UNL1       -0.2674
      3 C          62.0956   85.5362    8.7128 C.3     1  UNL1        0.0989
      4 C          62.8622   84.8146    9.7813 C.ar    1  UNL1       -0.0089
      5 C          63.7857   83.6914    9.4131 C.ar    1  UNL1       -0.0031
      6 C          64.5522   82.9698   10.4816 C.ar    1  UNL1        0.0010
      7 C          64.3952   83.3714   11.9183 C.ar    1  UNL1        0.0142
      8 C          63.4717   84.4945   12.2865 C.ar    1  UNL1        0.0436
      9 C          62.7052   85.2161   11.2180 C.ar    1  UNL1       -0.0101
     10 C          61.7816   86.3393   11.5862 C.3     1  UNL1        0.0447
     11 C          61.0151   87.0609   10.5177 C.3     1  UNL1        0.0782
     12 N          63.3147   84.8960   13.7232 N.pl3   1  UNL1       -0.3049
     13 C          64.1423   86.0142   14.2842 C.3     1  UNL1        0.1079
     14 C          63.9853   86.4157   15.7209 C.3     1  UNL1        0.0903
     15 N          63.0007   85.6991   16.5966 N.3     1  UNL1       -0.2946
     16 C          62.1731   84.5810   16.0356 C.3     1  UNL1        0.0903
     17 C          62.3301   84.1794   14.5989 C.3     1  UNL1        0.1079
     18 H          62.3487   86.4026   16.9436 H       1  UNL1        0.1233
     19 C          60.0915   88.1841   10.8859 C.3     1  UNL1        0.0888
     20 N          60.5360   89.2304   11.8644 N.3     1  UNL1       -0.2667
     21 C          59.7395   89.4780   13.1112 C.3     1  UNL1        0.0899
     22 C          61.7769   90.0292   11.5962 C.3     1  UNL1        0.0978
     23 C          62.0378   90.5708   10.2220 C.3     1  UNL1        0.0224
     24 C          63.2788   91.3696    9.9537 C.3     1  UNL1        0.0065
     25 C          64.2589   91.6268   11.0598 C.3     1  UNL1        0.0277
     26 C          63.9979   91.0853   12.4341 C.ar    1  UNL1       -0.0073
     27 C          64.9779   91.3425   13.5401 C.ar    1  UNL1       -0.0015
     28 C          64.7170   90.8010   14.9144 C.ar    1  UNL1        0.0203
     29 C          63.4761   90.0022   15.1826 C.ar    1  UNL1        0.0985
     30 N          62.4961   89.7449   14.0765 N.ar    1  UNL1       -0.2471
     31 C          62.7570   90.2865   12.7023 C.ar    1  UNL1        0.0695
@<TRIPOS>BOND
     1     1     2    1
     2     2     3    1
     3     3     4    1
     4     4     5   ar
     5     5     6   ar
     6     6     7   ar
     7     7     8   ar
     8     8    12    1
     9    12    13    1
    10    13    14    1
    11    14    15    1
    12    15    16    1
    13    16    17    1
    14     8     9   ar
    15     9    10    1
    16    10    11    1
    17    11    19    1
    18    19    20    1
    19    20    21    1
    20    22    20    1
    21    22    23    1
    22    23    24    1
    23    24    25    1
    24    25    26    1
    25    26    27   ar
    26    27    28   ar
    27    28    29   ar
    28    29    30   ar
    29    30    31   ar
    30    11     2    1
    31    31    22    1
    32     9     4   ar
    33    31    26   ar
    34    17    12    1
    35    15    18    1
@<TRIPOS>MOLECULE
*****
 31 35 0 0 0
SMALL
GASTEIGER

@<TRIPOS>ATOM
      1 C          64.2461   81.8581   12.7425 C.3     1  UNL1        0.0899
      2 N          63.6788   83.0350   12.0054 N.3     1  UNL1       -0.2674
      3 C          63.6422   83.0342   10.5059 C.3     1  UNL1        0.0989
      4 C          63.0749   84.2111    9.7688 C.ar    1  UNL1       -0.0089
      5 C          63.0383   84.2102    8.2693 C.ar    1  UNL1       -0.0031
      6 C          62.4710   85.3871    7.5323 C.ar    1  UNL1        0.0010
      7 C          61.9404   86.5648    8.2949 C.ar    1  UNL1        0.0142
      8 C          61.9771   86.5656    9.7944 C.ar    1  UNL1        0.0436
      9 C          62.5443   85.3888   10.5314 C.ar    1  UNL1       -0.0101
     10 C          62.5810   85.3896   12.0310 C.3     1  UNL1        0.0447
     11 C          63.1482   84.2127   12.7679 C.3     1  UNL1        0.0782
     12 N          61.4464   87.7433   10.5569 N.pl3   1  UNL1       -0.3049
     13 C          60.0392   87.7285   11.0760 C.3     1  UNL1        0.1079
     14 C          59.5086   88.9062   11.8386 C.3     1  UNL1        0.0903
     15 N          60.3852   90.0987   12.0820 N.3     1  UNL1       -0.2946
     16 C          61.7924   90.1136   11.5629 C.3     1  UNL1        0.0903
     17 C          62.3230   88.9359   10.8003 C.3     1  UNL1        0.1079
     18 H          60.4431   90.2202   13.0931 H       1  UNL1        0.1233
     19 C          63.1849   84.2135   14.2675 C.3     1  UNL1        0.0888
     20 N          64.1766   85.0738   14.9930 N.3     1  UNL1       -0.2667
     21 C          65.6441   84.9151   14.7258 C.3     1  UNL1        0.0899
     22 C          63.7009   86.0927   15.9857 C.3     1  UNL1        0.0978
     23 C          63.1824   85.6523   17.3225 C.3     1  UNL1        0.0224
     24 C          62.7067   86.6713   18.3153 C.3     1  UNL1        0.0065
     25 C          62.7495   88.1307   17.9711 C.3     1  UNL1        0.0277
     26 C          63.2681   88.5710   16.6342 C.ar    1  UNL1       -0.0073
     27 C          63.3109   90.0304   16.2901 C.ar    1  UNL1       -0.0015
     28 C          63.8295   90.4708   14.9533 C.ar    1  UNL1        0.0203
     29 C          64.3052   89.4519   13.9606 C.ar    1  UNL1        0.0985
     30 N          64.2623   87.9925   14.3048 N.ar    1  UNL1       -0.2471
     31 C          63.7438   87.5521   15.6416 C.ar    1  UNL1        0.0695
@<TRIPOS>BOND
     1     1     2    1
     2     2     3    1
     3     3     4    1
     4     4     5   ar
     5     5     6   ar
     6     6     7   ar
     7     7     8   ar
     8     8    12    1
     9    12    13    1
    10    13    14    1
    11    14    15    1
    12    15    16    1
    13    16    17    1
    14     8     9   ar
    15     9    10    1
    16    10    11    1
    17    11    19    1
    18    19    20    1
    19    20    21    1
    20    22    20    1
    21    22    23    1
    22    23    24    1
    23    24    25    1
    24    25    26    1
    25    26    27   ar
    26    27    28   ar
    27    28    29   ar
    28    29    30   ar
    29    30    31   ar
    30    11     2    1
    31    31    22    1
    32     9     4   ar
    33    31    26   ar
    34    17    12    1
    35    15    18    1
@<TRIPOS>MOLECULE
*****
 31 35 0 0 0
SMALL
GASTEIGER

@<TRIPOS>ATOM
      1 C          60.8459   90.0085    8.9195 C.3     1  UNL1        0.0899
      2 N          61.6870   89.9694   10.1609 N.3     1  UNL1       -0.2674
      3 C          62.7818   90.9759   10.3572 C.3     1  UNL1        0.0989
      4 C          63.6228   90.9368   11.5986 C.ar    1  UNL1       -0.0089
      5 C          64.7176   91.9433   11.7949 C.ar    1  UNL1       -0.0031
      6 C          65.5586   91.9041   13.0363 C.ar    1  UNL1        0.0010
      7 C          65.3049   90.8585   14.0814 C.ar    1  UNL1        0.0142
      8 C          64.2101   89.8521   13.8852 C.ar    1  UNL1        0.0436
      9 C          63.3691   89.8912   12.6438 C.ar    1  UNL1       -0.0101
     10 C          62.2743   88.8847   12.4475 C.3     1  UNL1        0.0447
     11 C          61.4333   88.9238   11.2061 C.3     1  UNL1        0.0782
     12 N          63.9564   88.8065   14.9303 N.pl3   1  UNL1       -0.3049
     13 C          63.2382   89.1699   16.1960 C.3     1  UNL1        0.1079
     14 C          62.9845   88.1243   17.2411 C.3     1  UNL1        0.0903
     15 N          63.4490   86.7153   17.0206 N.3     1  UNL1       -0.2946
     16 C          64.1673   86.3518   15.7550 C.3     1  UNL1        0.0903
     17 C          64.4210   87.3974   14.7098 C.3     1  UNL1        0.1079
     18 H          62.6214   86.1212   17.0706 H       1  UNL1        0.1233
     19 C          60.3385   87.9174   11.0098 C.3     1  UNL1        0.0888
     20 N          60.3108   87.0712    9.7715 N.3     1  UNL1       -0.2667
     21 C          59.1610   87.1800    8.8144 C.3     1  UNL1        0.0899
     22 C          61.4329   86.1163    9.4904 C.3     1  UNL1        0.0978
     23 C          61.9049   85.9076    8.0820 C.3     1  UNL1        0.0224
     24 C          63.0270   84.9526    7.8009 C.3     1  UNL1        0.0065
     25 C          63.6771   84.2065    8.9281 C.3     1  UNL1        0.0277
     26 C          63.2050   84.4153   10.3365 C.ar    1  UNL1       -0.0073
     27 C          63.8550   83.6691   11.4638 C.ar    1  UNL1       -0.0015
     28 C          63.3830   83.8779   12.8722 C.ar    1  UNL1        0.0203
     29 C          62.2609   84.8328   13.1533 C.ar    1  UNL1        0.0985
     30 N          61.6109   85.5789   12.0260 N.ar    1  UNL1       -0.2471
     31 C          62.0829   85.3702   10.6177 C.ar    1  UNL1        0.0695
@<TRIPOS>BOND
     1     1     2    1
     2     2     3    1
     3     3     4    1
     4     4     5   ar
     5     5     6   ar
     6     6     7   ar
     7     7     8   ar
     8     8    12    1
     9    12    13    1
    10    13    14    1
    11    14    15    1
    12    15    16    1
    13    16    17    1
    14     8     9   ar
    15     9    10    1
    16    10    11    1
    17    11    19    1
    18    19    20    1
    19    20    21    1
    20    22    20    1
    21    22    23    1
    22    23    24    1
    23    24    25    1
    24    25    26    1
    25    26    27   ar
    26    27    28   ar
    27    28    29   ar
    28    29    30   ar
    29    30    31   ar
    30    11     2    1
    31    31    22    1
    32     9     4   ar
    33    31    26   ar
    34    17    12    1
    35    15    18    1
@<TRIPOS>MOLECULE
*****
 31 35 0 0 0
SMALL
GASTEIGER

@<TRIPOS>ATOM
      1 C          62.2703   89.6044   15.7226 C.3     1  UNL1        0.0899
      2 N          63.3607   90.4729   15.1683 N.3     1  UNL1       -0.2674
      3 C          64.4465   90.9806   16.0700 C.3     1  UNL1        0.0989
      4 C          65.5368   91.8490   15.5157 C.ar    1  UNL1       -0.0089
      5 C          66.6227   92.3567   16.4174 C.ar    1  UNL1       -0.0031
      6 C          67.7129   93.2251   15.8631 C.ar    1  UNL1        0.0010
      7 C          67.7173   93.5857   14.4071 C.ar    1  UNL1        0.0142
      8 C          66.6314   93.0780   13.5054 C.ar    1  UNL1        0.0436
      9 C          65.5412   92.2097   14.0597 C.ar    1  UNL1       -0.0101
     10 C          64.4552   91.7019   13.1580 C.3     1  UNL1        0.0447
     11 C          63.3650   90.8335   13.7123 C.3     1  UNL1        0.0782
     12 N          66.6358   93.4387   12.0494 N.pl3   1  UNL1       -0.3049
     13 C          66.0009   94.7183   11.5918 C.3     1  UNL1        0.1079
     14 C          66.0053   95.0789   10.1358 C.3     1  UNL1        0.0903
     15 N          66.6445   94.1600    9.1375 N.3     1  UNL1       -0.2946
     16 C          67.2794   92.8804    9.5951 C.3     1  UNL1        0.0903
     17 C          67.2750   92.5197   11.0511 C.3     1  UNL1        0.1079
     18 H          67.3720   94.6975    8.6661 H       1  UNL1        0.1233
     19 C          62.2791   90.3257   12.8106 C.3     1  UNL1        0.0888
     20 N          62.6202   89.8026   11.4468 N.3     1  UNL1       -0.2667
     21 C          63.2906   90.6971   10.4465 C.3     1  UNL1        0.0899
     22 C          62.2908   88.3851   11.0833 C.3     1  UNL1        0.0978
     23 C          62.9002   87.2522   11.8546 C.3     1  UNL1        0.0224
     24 C          62.5709   85.8346   11.4911 C.3     1  UNL1        0.0065
     25 C          61.6322   85.5501   10.3562 C.3     1  UNL1        0.0277
     26 C          61.0228   86.6831    9.5848 C.ar    1  UNL1       -0.0073
     27 C          60.0842   86.3986    8.4499 C.ar    1  UNL1       -0.0015
     28 C          59.4748   87.5316    7.6786 C.ar    1  UNL1        0.0203
     29 C          59.8042   88.9491    8.0422 C.ar    1  UNL1        0.0985
     30 N          60.7428   89.2336    9.1770 N.ar    1  UNL1       -0.2471
     31 C          61.3522   88.1006    9.9484 C.ar    1  UNL1        0.0695
@<TRIPOS>BOND
     1     1     2    1
     2     2     3    1
     3     3     4    1
     4     4     5   ar
     5     5     6   ar
     6     6     7   ar
     7     7     8   ar
     8     8    12    1
     9    12    13    1
    10    13    14    1
    11    14    15    1
    12    15    16    1
    13    16    17    1
    14     8     9   ar
    15     9    10    1
    16    10    11    1
    17    11    19    1
    18    19    20    1
    19    20    21    1
    20    22    20    1
    21    22    23    1
    22    23    24    1
    23    24    25    1
    24    25    26    1
    25    26    27   ar
    26    27    28   ar
    27    28    29   ar
    28    29    30   ar
    29    30    31   ar
    30    11     2    1
    31    31    22    1
    32     9     4   ar
    33    31    26   ar
    34    17    12    1
    35    15    18    1
@<TRIPOS>MOLECULE
*****
 31 35 0 0 0
SMALL
GASTEIGER

@<TRIPOS>ATOM
      1 C          62.2628   89.5525   15.6774 C.3     1  UNL1        0.0899
      2 N          63.3479   90.4388   15.1416 N.3     1  UNL1       -0.2674
      3 C          64.4061   90.9696   16.0627 C.3     1  UNL1        0.0989
      4 C          65.4912   91.8558   15.5269 C.ar    1  UNL1       -0.0089
      5 C          66.5493   92.3866   16.4481 C.ar    1  UNL1       -0.0031
      6 C          67.6344   93.2728   15.9123 C.ar    1  UNL1        0.0010
      7 C          67.6614   93.6283   14.4553 C.ar    1  UNL1        0.0142
      8 C          66.6032   93.0976   13.5341 C.ar    1  UNL1        0.0436
      9 C          65.5182   92.2113   14.0699 C.ar    1  UNL1       -0.0101
     10 C          64.4600   91.6805   13.1487 C.3     1  UNL1        0.0447
     11 C          63.3749   90.7943   13.6845 C.3     1  UNL1        0.0782
     12 N          66.6302   93.4531   12.0771 N.pl3   1  UNL1       -0.3049
     13 C          66.0452   94.7534   11.6114 C.3     1  UNL1        0.1079
     14 C          66.0721   95.1089   10.1544 C.3     1  UNL1        0.0903
     15 N          66.6841   94.1640    9.1630 N.3     1  UNL1       -0.2946
     16 C          67.2691   92.8637    9.6287 C.3     1  UNL1        0.0903
     17 C          67.2421   92.5082   11.0857 C.3     1  UNL1        0.1079
     18 H          67.4337   94.6733    8.6949 H       1  UNL1        0.1233
     19 C          62.3167   90.2635   12.7633 C.3     1  UNL1        0.0888
     20 N          62.6833   89.8139   11.3801 N.3     1  UNL1       -0.2667
     21 C          63.4333   90.7366   10.4656 C.3     1  UNL1        0.0899
     22 C          62.2998   88.4417   10.9112 C.3     1  UNL1        0.0978
     23 C          61.5191   88.2739    9.6415 C.3     1  UNL1        0.0224
     24 C          61.1356   86.9016    9.1725 C.3     1  UNL1        0.0065
     25 C          61.5330   85.6971    9.9733 C.3     1  UNL1        0.0277
     26 C          62.3138   85.8650   11.2431 C.ar    1  UNL1       -0.0073
     27 C          62.7111   84.6605   12.0440 C.ar    1  UNL1       -0.0015
     28 C          63.4919   84.8282   13.3137 C.ar    1  UNL1        0.0203
     29 C          63.8753   86.2005   13.7825 C.ar    1  UNL1        0.0985
     30 N          63.4780   87.4050   12.9817 N.ar    1  UNL1       -0.2471
     31 C          62.6972   87.2372   11.7120 C.ar    1  UNL1        0.0695
@<TRIPOS>BOND
     1     1     2    1
     2     2     3    1
     3     3     4    1
     4     4     5   ar
     5     5     6   ar
     6     6     7   ar
     7     7     8   ar
     8     8    12    1
     9    12    13    1
    10    13    14    1
    11    14    15    1
    12    15    16    1
    13    16    17    1
    14     8     9   ar
    15     9    10    1
    16    10    11    1
    17    11    19    1
    18    19    20    1
    19    20    21    1
    20    22    20    1
    21    22    23    1
    22    23    24    1
    23    24    25    1
    24    25    26    1
    25    26    27   ar
    26    27    28   ar
    27    28    29   ar
    28    29    30   ar
    29    30    31   ar
    30    11     2    1
    31    31    22    1
    32     9     4   ar
    33    31    26   ar
    34    17    12    1
    35    15    18    1
@<TRIPOS>MOLECULE
*****
 31 35 0 0 0
SMALL
GASTEIGER

@<TRIPOS>ATOM
      1 C          61.0163   88.1838    8.3890 C.3     1  UNL1        0.0899
      2 N          61.6288   87.2299    9.3714 N.3     1  UNL1       -0.2674
      3 C          62.2356   85.9451    8.8907 C.3     1  UNL1        0.0989
      4 C          62.8482   84.9912    9.8731 C.ar    1  UNL1       -0.0089
      5 C          63.4550   83.7064    9.3924 C.ar    1  UNL1       -0.0031
      6 C          64.0675   82.7526   10.3747 C.ar    1  UNL1        0.0010
      7 C          64.0732   83.0836   11.8377 C.ar    1  UNL1        0.0142
      8 C          63.4664   84.3684   12.3184 C.ar    1  UNL1        0.0436
      9 C          62.8539   85.3222   11.3361 C.ar    1  UNL1       -0.0101
     10 C          62.2470   86.6070   11.8167 C.3     1  UNL1        0.0447
     11 C          61.6345   87.5608   10.8344 C.3     1  UNL1        0.0782
     12 N          63.4721   84.6993   13.7814 N.pl3   1  UNL1       -0.3049
     13 C          62.4625   84.0718   14.6963 C.3     1  UNL1        0.1079
     14 C          62.4682   84.4028   16.1593 C.3     1  UNL1        0.0903
     15 N          63.4834   85.3613   16.7075 N.3     1  UNL1       -0.2946
     16 C          64.4930   85.9888   15.7926 C.3     1  UNL1        0.0903
     17 C          64.4873   85.6578   14.3296 C.3     1  UNL1        0.1079
     18 H          64.0075   84.8577   17.4232 H       1  UNL1        0.1233
     19 C          61.0276   88.8457   11.3151 C.3     1  UNL1        0.0888
     20 N          61.8568   90.0947   11.3637 N.3     1  UNL1       -0.2667
     21 C          61.7059   91.1372   10.2957 C.3     1  UNL1        0.0899
     22 C          62.8369   90.3013   12.4802 C.3     1  UNL1        0.0978
     23 C          62.5963   89.6643   13.8168 C.3     1  UNL1        0.0224
     24 C          63.5764   89.8709   14.9334 C.3     1  UNL1        0.0065
     25 C          64.7971   90.7144   14.7134 C.3     1  UNL1        0.0277
     26 C          65.0377   91.3513   13.3768 C.ar    1  UNL1       -0.0073
     27 C          66.2584   92.1949   13.1568 C.ar    1  UNL1       -0.0015
     28 C          66.4990   92.8318   11.8202 C.ar    1  UNL1        0.0203
     29 C          65.5189   92.6252   10.7037 C.ar    1  UNL1        0.0985
     30 N          64.2982   91.7817   10.9237 N.ar    1  UNL1       -0.2471
     31 C          64.0576   91.1448   12.2602 C.ar    1  UNL1        0.0695
@<TRIPOS>BOND
     1     1     2    1
     2     2     3    1
     3     3     4    1
     4     4     5   ar
     5     5     6   ar
     6     6     7   ar
     7     7     8   ar
     8     8    12    1
     9    12    13    1
    10    13    14    1
    11    14    15    1
    12    15    16    1
    13    16    17    1
    14     8     9   ar
    15     9    10    1
    16    10    11    1
    17    11    19    1
    18    19    20    1
    19    20    21    1
    20    22    20    1
    21    22    23    1
    22    23    24    1
    23    24    25    1
    24    25    26    1
    25    26    27   ar
    26    27    28   ar
    27    28    29   ar
    28    29    30   ar
    29    30    31   ar
    30    11     2    1
    31    31    22    1
    32     9     4   ar
    33    31    26   ar
    34    17    12    1
    35    15    18    1
@<TRIPOS>MOLECULE
*****
 31 35 0 0 0
SMALL
GASTEIGER

@<TRIPOS>ATOM
      1 C          60.0122   91.1587   11.1428 C.3     1  UNL1        0.0899
      2 N          60.4626   89.7876   10.7337 N.3     1  UNL1       -0.2674
      3 C          59.9803   89.1936    9.4436 C.3     1  UNL1        0.0989
      4 C          60.4307   87.8225    9.0345 C.ar    1  UNL1       -0.0089
      5 C          59.9484   87.2285    7.7444 C.ar    1  UNL1       -0.0031
      6 C          60.3988   85.8574    7.3354 C.ar    1  UNL1        0.0010
      7 C          61.3314   85.0804    8.2165 C.ar    1  UNL1        0.0142
      8 C          61.8137   85.6744    9.5066 C.ar    1  UNL1        0.0436
      9 C          61.3633   87.0454    9.9156 C.ar    1  UNL1       -0.0101
     10 C          61.8456   87.6395   11.2059 C.3     1  UNL1        0.0447
     11 C          61.3952   89.0106   11.6149 C.3     1  UNL1        0.0782
     12 N          62.7463   84.8973   10.3878 N.pl3   1  UNL1       -0.3049
     13 C          62.7288   85.1118   11.8722 C.3     1  UNL1        0.1079
     14 C          63.6614   84.3347   12.7533 C.3     1  UNL1        0.0903
     15 N          64.6116   83.3432   12.1500 N.3     1  UNL1       -0.2946
     16 C          64.6291   83.1288   10.6656 C.3     1  UNL1        0.0903
     17 C          63.6965   83.9058    9.7844 C.3     1  UNL1        0.1079
     18 H          64.4040   82.4398   12.5756 H       1  UNL1        0.1233
     19 C          61.8775   89.6046   12.9051 C.3     1  UNL1        0.0888
     20 N          63.3477   89.7742   13.1494 N.3     1  UNL1       -0.2667
     21 C          64.0788   88.8030   14.0283 C.3     1  UNL1        0.0899
     22 C          64.0868   90.9148   12.5149 C.3     1  UNL1        0.0978
     23 C          63.9138   91.1995   11.0524 C.3     1  UNL1        0.0224
     24 C          64.6529   92.3402   10.4178 C.3     1  UNL1        0.0065
     25 C          65.5651   93.1960   11.2457 C.3     1  UNL1        0.0277
     26 C          65.7381   92.9112   12.7083 C.ar    1  UNL1       -0.0073
     27 C          66.6502   93.7671   13.5362 C.ar    1  UNL1       -0.0015
     28 C          66.8232   93.4824   14.9987 C.ar    1  UNL1        0.0203
     29 C          66.0841   92.3418   15.6333 C.ar    1  UNL1        0.0985
     30 N          65.1720   91.4859   14.8053 N.ar    1  UNL1       -0.2471
     31 C          64.9990   91.7706   13.3428 C.ar    1  UNL1        0.0695
@<TRIPOS>BOND
     1     1     2    1
     2     2     3    1
     3     3     4    1
     4     4     5   ar
     5     5     6   ar
     6     6     7   ar
     7     7     8   ar
     8     8    12    1
     9    12    13    1
    10    13    14    1
    11    14    15    1
    12    15    16    1
    13    16    17    1
    14     8     9   ar
    15     9    10    1
    16    10    11    1
    17    11    19    1
    18    19    20    1
    19    20    21    1
    20    22    20    1
    21    22    23    1
    22    23    24    1
    23    24    25    1
    24    25    26    1
    25    26    27   ar
    26    27    28   ar
    27    28    29   ar
    28    29    30   ar
    29    30    31   ar
    30    11     2    1
    31    31    22    1
    32     9     4   ar
    33    31    26   ar
    34    17    12    1
    35    15    18    1
@<TRIPOS>MOLECULE
*****
 31 35 0 0 0
SMALL
GASTEIGER

@<TRIPOS>ATOM
      1 C          64.4303   87.6165   15.5634 C.3     1  UNL1        0.0899
      2 N          63.8775   87.9310   14.2049 N.3     1  UNL1       -0.2674
      3 C          63.9523   89.3305   13.6703 C.3     1  UNL1        0.0989
      4 C          63.3994   89.6450   12.3118 C.ar    1  UNL1       -0.0089
      5 C          63.4742   91.0445   11.7773 C.ar    1  UNL1       -0.0031
      6 C          62.9214   91.3590   10.4188 C.ar    1  UNL1        0.0010
      7 C          62.2938   90.2740    9.5949 C.ar    1  UNL1        0.0142
      8 C          62.2190   88.8745   10.1294 C.ar    1  UNL1        0.0436
      9 C          62.7718   88.5600   11.4879 C.ar    1  UNL1       -0.0101
     10 C          62.6970   87.1605   12.0225 C.3     1  UNL1        0.0447
     11 C          63.2499   86.8460   13.3810 C.3     1  UNL1        0.0782
     12 N          61.5914   87.7895    9.3055 N.pl3   1  UNL1       -0.3049
     13 C          62.4113   86.6136    8.8641 C.3     1  UNL1        0.1079
     14 C          61.7837   85.5285    8.0402 C.3     1  UNL1        0.0903
     15 N          60.3362   85.6194    7.6577 N.3     1  UNL1       -0.2946
     16 C          59.5162   86.7953    8.0992 C.3     1  UNL1        0.0903
     17 C          60.1438   87.8803    8.9231 C.3     1  UNL1        0.1079
     18 H          59.8804   84.7863    8.0299 H       1  UNL1        0.1233
     19 C          63.1751   85.4464   13.9156 C.3     1  UNL1        0.0888
     20 N          64.2461   84.4541   13.5718 N.3     1  UNL1       -0.2667
     21 C          65.5384   84.4513   14.3335 C.3     1  UNL1        0.0899
     22 C          64.0249   83.4646   12.4665 C.3     1  UNL1        0.0978
     23 C          64.4660   83.7890   11.0701 C.3     1  UNL1        0.0224
     24 C          64.2448   82.7994    9.9646 C.3     1  UNL1        0.0065
     25 C          63.5825   81.4854   10.2557 C.3     1  UNL1        0.0277
     26 C          63.1413   81.1610   11.6523 C.ar    1  UNL1       -0.0073
     27 C          62.4790   79.8470   11.9434 C.ar    1  UNL1       -0.0015
     28 C          62.0379   79.5226   13.3398 C.ar    1  UNL1        0.0203
     29 C          62.2591   80.5121   14.4452 C.ar    1  UNL1        0.0985
     30 N          62.9214   81.8261   14.1541 N.ar    1  UNL1       -0.2471
     31 C          63.3626   82.1506   12.7576 C.ar    1  UNL1        0.0695
@<TRIPOS>BOND
     1     1     2    1
     2     2     3    1
     3     3     4    1
     4     4     5   ar
     5     5     6   ar
     6     6     7   ar
     7     7     8   ar
     8     8    12    1
     9    12    13    1
    10    13    14    1
    11    14    15    1
    12    15    16    1
    13    16    17    1
    14     8     9   ar
    15     9    10    1
    16    10    11    1
    17    11    19    1
    18    19    20    1
    19    20    21    1
    20    22    20    1
    21    22    23    1
    22    23    24    1
    23    24    25    1
    24    25    26    1
    25    26    27   ar
    26    27    28   ar
    27    28    29   ar
    28    29    30   ar
    29    30    31   ar
    30    11     2    1
    31    31    22    1
    32     9     4   ar
    33    31    26   ar
    34    17    12    1
    35    15    18    1
@<TRIPOS>MOLECULE
*****
 31 35 0 0 0
SMALL
GASTEIGER

@<TRIPOS>ATOM
      1 C          61.4619   90.3667    9.6312 C.3     1  UNL1        0.0899
      2 N          61.8723   89.0148   10.1352 N.3     1  UNL1       -0.2674
      3 C          62.0253   87.8715    9.1763 C.3     1  UNL1        0.0989
      4 C          62.4358   86.5196    9.6804 C.ar    1  UNL1       -0.0089
      5 C          62.5887   85.3763    8.7215 C.ar    1  UNL1       -0.0031
      6 C          62.9992   84.0246    9.2256 C.ar    1  UNL1        0.0010
      7 C          63.2567   83.8160   10.6885 C.ar    1  UNL1        0.0142
      8 C          63.1037   84.9593   11.6474 C.ar    1  UNL1        0.0436
      9 C          62.6933   86.3111   11.1433 C.ar    1  UNL1       -0.0101
     10 C          62.5403   87.4544   12.1022 C.3     1  UNL1        0.0447
     11 C          62.1298   88.8062   11.5982 C.3     1  UNL1        0.0782
     12 N          63.3612   84.7507   13.1103 N.pl3   1  UNL1       -0.3049
     13 C          64.2073   85.7291   13.8699 C.3     1  UNL1        0.1079
     14 C          64.4648   85.5205   15.3328 C.3     1  UNL1        0.0903
     15 N          63.8762   84.3337   16.0362 N.3     1  UNL1       -0.2946
     16 C          63.0301   83.3553   15.2767 C.3     1  UNL1        0.0903
     17 C          62.7726   83.5639   13.8137 C.3     1  UNL1        0.1079
     18 H          63.2978   84.6973   16.7937 H       1  UNL1        0.1233
     19 C          61.9768   89.9496   12.5571 C.3     1  UNL1        0.0888
     20 N          63.1364   90.3746   13.4084 N.3     1  UNL1       -0.2667
     21 C          63.2582   89.8701   14.8158 C.3     1  UNL1        0.0899
     22 C          64.1740   91.3042   12.8525 C.3     1  UNL1        0.0978
     23 C          64.2388   91.5589   11.3758 C.3     1  UNL1        0.0224
     24 C          65.2764   92.4886   10.8198 C.3     1  UNL1        0.0065
     25 C          66.2493   93.1635   11.7406 C.3     1  UNL1        0.0277
     26 C          66.1845   92.9088   13.2175 C.ar    1  UNL1       -0.0073
     27 C          67.1574   93.5837   14.1383 C.ar    1  UNL1       -0.0015
     28 C          67.0926   93.3291   15.6151 C.ar    1  UNL1        0.0203
     29 C          66.0550   92.3995   16.1710 C.ar    1  UNL1        0.0985
     30 N          65.0821   91.7245   15.2501 N.ar    1  UNL1       -0.2471
     31 C          65.1469   91.9792   13.7734 C.ar    1  UNL1        0.0695
@<TRIPOS>BOND
     1     1     2    1
     2     2     3    1
     3     3     4    1
     4     4     5   ar
     5     5     6   ar
     6     6     7   ar
     7     7     8   ar
     8     8    12    1
     9    12    13    1
    10    13    14    1
    11    14    15    1
    12    15    16    1
    13    16    17    1
    14     8     9   ar
    15     9    10    1
    16    10    11    1
    17    11    19    1
    18    19    20    1
    19    20    21    1
    20    22    20    1
    21    22    23    1
    22    23    24    1
    23    24    25    1
    24    25    26    1
    25    26    27   ar
    26    27    28   ar
    27    28    29   ar
    28    29    30   ar
    29    30    31   ar
    30    11     2    1
    31    31    22    1
    32     9     4   ar
    33    31    26   ar
    34    17    12    1
    35    15    18    1
