@<TRIPOS>MOLECULE
*****
 26 29 0 0 0
SMALL
GASTEIGER

@<TRIPOS>ATOM
      1 C          61.1568   85.6067    8.2247 C.3     1  UNL1        0.0061
      2 C          61.3591   86.7359    9.1911 C.3     1  UNL1        0.0373
      3 C          60.4813   87.4123    8.1802 C.3     1  UNL1        0.0075
      4 C          60.0863   88.8468    8.3701 C.3     1  UNL1        0.0219
      5 C          60.5690   89.6051    9.5709 C.3     1  UNL1        0.0950
      6 N          61.4467   88.9287   10.5819 N.am    1  UNL1       -0.2636
      7 C          61.9295   89.6869   11.7827 C.2     1  UNL1        0.3088
      8 O          61.5344   91.1214   11.9726 O.2     1  UNL1       -0.2522
      9 N          62.8073   89.0105   12.7938 N.am    1  UNL1       -0.2508
     10 C          61.8418   87.4942   10.3920 C.3     1  UNL1        0.0989
     11 H          63.0666   88.0690   12.6692 H       1  UNL1        0.1579
     12 C          63.2900   89.7688   13.9947 C.ar    1  UNL1        0.1773
     13 N          62.7602   89.6375   15.3918 N.ar    1  UNL1       -0.0617
     14 O          63.5301   90.5790   16.2698 O.2     1  UNL1       -0.3521
     15 C          64.5357   91.2921   15.4153 C.ar    1  UNL1        0.1781
     16 C          65.5673   92.3327   15.7359 C.ar    1  UNL1        0.0403
     17 C          66.4506   92.8725   14.6504 C.ar    1  UNL1        0.0032
     18 C          66.3022   92.3718   13.2443 C.ar    1  UNL1        0.0003
     19 C          65.2706   91.3312   12.9236 C.ar    1  UNL1        0.0060
     20 C          64.3874   90.7913   14.0091 C.ar    1  UNL1        0.0721
     21 C          62.1666   85.6674    9.8665 C.ar    1  UNL1       -0.0212
     22 C          62.0321   85.4469   11.3441 C.ar    1  UNL1       -0.0042
     23 C          62.8397   84.3783   12.0194 C.ar    1  UNL1       -0.0003
     24 C          63.7817   83.5304   11.2173 C.ar    1  UNL1       -0.0000
     25 C          63.9162   83.7510    9.7396 C.ar    1  UNL1       -0.0003
     26 C          63.1087   84.8195    9.0643 C.ar    1  UNL1       -0.0042
@<TRIPOS>BOND
     1     1     2    1
     2     2    21    1
     3    21    22   ar
     4    22    23   ar
     5    23    24   ar
     6    24    25   ar
     7    25    26   ar
     8     2     3    1
     9     3     4    1
    10     4     5    1
    11     5     6    1
    12     6     7   am
    13     7     8    2
    14     7     9   am
    15     9    12    1
    16    12    13   ar
    17    13    14   ar
    18    14    15   ar
    19    15    16   ar
    20    16    17   ar
    21    17    18   ar
    22    18    19   ar
    23    19    20   ar
    24     6    10    1
    25    10     2    1
    26    26    21   ar
    27    20    12   ar
    28    20    15   ar
    29     9    11    1
@<TRIPOS>MOLECULE
*****
 26 29 0 0 0
SMALL
GASTEIGER

@<TRIPOS>ATOM
      1 C          62.3626   84.6332   11.0922 C.3     1  UNL1        0.0061
      2 C          62.6404   86.0385   11.5370 C.3     1  UNL1        0.0373
      3 C          62.0709   86.3042   10.1750 C.3     1  UNL1        0.0075
      4 C          61.9434   87.7134    9.6772 C.3     1  UNL1        0.0219
      5 C          62.3855   88.8570   10.5413 C.3     1  UNL1        0.0950
      6 N          62.9550   88.5914   11.9032 N.am    1  UNL1       -0.2636
      7 C          63.3971   89.7350   12.7674 C.2     1  UNL1        0.3088
      8 O          63.2696   91.1442   12.2695 O.2     1  UNL1       -0.2522
      9 N          63.9668   89.4694   14.1294 N.am    1  UNL1       -0.2508
     10 C          63.0825   87.1821   12.4011 C.3     1  UNL1        0.0989
     11 H          64.0504   88.5444   14.4562 H       1  UNL1        0.1579
     12 C          64.4088   90.6130   14.9936 C.ar    1  UNL1        0.1773
     13 N          63.6075   91.2513   16.0892 N.ar    1  UNL1       -0.0617
     14 O          64.4334   92.3519   16.6865 O.2     1  UNL1       -0.3521
     15 C          65.7450   92.3937   15.9600 C.ar    1  UNL1        0.1781
     16 C          66.9512   93.2716   16.1160 C.ar    1  UNL1        0.0403
     17 C          68.1422   93.0748   15.2257 C.ar    1  UNL1        0.0032
     18 C          68.1271   92.0001   14.1794 C.ar    1  UNL1        0.0003
     19 C          66.9209   91.1222   14.0234 C.ar    1  UNL1        0.0060
     20 C          65.7299   91.3190   14.9137 C.ar    1  UNL1        0.0721
     21 C          63.1136   85.2849   12.7445 C.ar    1  UNL1       -0.0212
     22 C          62.7476   83.8406   12.9183 C.ar    1  UNL1       -0.0042
     23 C          63.2208   83.0871   14.1258 C.ar    1  UNL1       -0.0003
     24 C          64.0599   83.7777   15.1597 C.ar    1  UNL1       -0.0000
     25 C          64.4259   85.2220   14.9860 C.ar    1  UNL1       -0.0003
     26 C          63.9527   85.9756   13.7784 C.ar    1  UNL1       -0.0042
@<TRIPOS>BOND
     1     1     2    1
     2     2    21    1
     3    21    22   ar
     4    22    23   ar
     5    23    24   ar
     6    24    25   ar
     7    25    26   ar
     8     2     3    1
     9     3     4    1
    10     4     5    1
    11     5     6    1
    12     6     7   am
    13     7     8    2
    14     7     9   am
    15     9    12    1
    16    12    13   ar
    17    13    14   ar
    18    14    15   ar
    19    15    16   ar
    20    16    17   ar
    21    17    18   ar
    22    18    19   ar
    23    19    20   ar
    24     6    10    1
    25    10     2    1
    26    26    21   ar
    27    20    12   ar
    28    20    15   ar
    29     9    11    1
@<TRIPOS>MOLECULE
*****
 26 29 0 0 0
SMALL
GASTEIGER

@<TRIPOS>ATOM
      1 C          62.4636   90.9054   10.0405 C.3     1  UNL1        0.0061
      2 C          62.8156   89.8642   11.0612 C.3     1  UNL1        0.0373
      3 C          63.5180   91.0523   11.6484 C.3     1  UNL1        0.0075
      4 C          64.2861   90.9123   12.9292 C.3     1  UNL1        0.0219
      5 C          64.3517   89.5840   13.6229 C.3     1  UNL1        0.0950
      6 N          63.6493   88.3958   13.0358 N.am    1  UNL1       -0.2636
      7 C          63.7149   87.0675   13.7295 C.2     1  UNL1        0.3088
      8 O          64.4830   86.9274   15.0103 O.2     1  UNL1       -0.2522
      9 N          63.0124   85.8791   13.1424 N.am    1  UNL1       -0.2508
     10 C          62.8812   88.5358   11.7550 C.3     1  UNL1        0.0989
     11 H          62.5083   85.9711   12.3018 H       1  UNL1        0.1579
     12 C          63.0781   84.5508   13.8362 C.ar    1  UNL1        0.1773
     13 N          63.2417   84.3337   15.3113 N.ar    1  UNL1       -0.0617
     14 O          63.2564   82.8551   15.5633 O.2     1  UNL1       -0.3521
     15 C          63.1018   82.1584   14.2440 C.ar    1  UNL1        0.1781
     16 C          63.0472   80.7051   13.8767 C.ar    1  UNL1        0.0403
     17 C          62.8824   80.2999   12.4419 C.ar    1  UNL1        0.0032
     18 C          62.7722   81.3479   11.3745 C.ar    1  UNL1        0.0003
     19 C          62.8268   82.8012   11.7417 C.ar    1  UNL1        0.0060
     20 C          62.9916   83.2064   13.1765 C.ar    1  UNL1        0.0721
     21 C          61.9909   89.0375   10.1197 C.ar    1  UNL1       -0.0212
     22 C          62.3636   87.6094    9.8522 C.ar    1  UNL1       -0.0042
     23 C          61.5388   86.7828    8.9107 C.ar    1  UNL1       -0.0003
     24 C          60.3415   87.3842    8.2366 C.ar    1  UNL1       -0.0000
     25 C          59.9687   88.8124    8.5040 C.ar    1  UNL1       -0.0003
     26 C          60.7935   89.6390    9.4456 C.ar    1  UNL1       -0.0042
@<TRIPOS>BOND
     1     1     2    1
     2     2    21    1
     3    21    22   ar
     4    22    23   ar
     5    23    24   ar
     6    24    25   ar
     7    25    26   ar
     8     2     3    1
     9     3     4    1
    10     4     5    1
    11     5     6    1
    12     6     7   am
    13     7     8    2
    14     7     9   am
    15     9    12    1
    16    12    13   ar
    17    13    14   ar
    18    14    15   ar
    19    15    16   ar
    20    16    17   ar
    21    17    18   ar
    22    18    19   ar
    23    19    20   ar
    24     6    10    1
    25    10     2    1
    26    26    21   ar
    27    20    12   ar
    28    20    15   ar
    29     9    11    1
@<TRIPOS>MOLECULE
*****
 26 29 0 0 0
SMALL
GASTEIGER

@<TRIPOS>ATOM
      1 C          61.7131   85.1512    9.5399 C.3     1  UNL1        0.0061
      2 C          62.2909   85.7756   10.7753 C.3     1  UNL1        0.0373
      3 C          62.7294   84.3547   10.9721 C.3     1  UNL1        0.0075
      4 C          63.5238   83.9763   12.1869 C.3     1  UNL1        0.0219
      5 C          63.8797   85.0188   13.2050 C.3     1  UNL1        0.0950
      6 N          63.4412   86.4397   13.0082 N.am    1  UNL1       -0.2636
      7 C          63.7971   87.4822   14.0264 C.2     1  UNL1        0.3088
      8 O          64.5914   87.1038   15.2412 O.2     1  UNL1       -0.2522
      9 N          63.3586   88.9032   13.8296 N.am    1  UNL1       -0.2508
     10 C          62.6468   86.8181   11.7934 C.3     1  UNL1        0.0989
     11 H          62.8372   89.1516   13.0323 H       1  UNL1        0.1579
     12 C          63.7145   89.9457   14.8477 C.ar    1  UNL1        0.1773
     13 N          62.9725   90.2238   16.1214 N.ar    1  UNL1       -0.0617
     14 O          63.6744   91.3431   16.8317 O.2     1  UNL1       -0.3521
     15 C          64.8501   91.7568   15.9971 C.ar    1  UNL1        0.1781
     16 C          65.9012   92.8083   16.1952 C.ar    1  UNL1        0.0403
     17 C          66.9772   92.9962   15.1672 C.ar    1  UNL1        0.0032
     18 C          67.0020   92.1326   13.9410 C.ar    1  UNL1        0.0003
     19 C          65.9508   91.0810   13.7429 C.ar    1  UNL1        0.0060
     20 C          64.8749   90.8931   14.7709 C.ar    1  UNL1        0.0721
     21 C          61.6518   86.9797   10.1496 C.ar    1  UNL1       -0.0212
     22 C          60.4886   86.8123    9.2174 C.ar    1  UNL1       -0.0042
     23 C          59.8496   88.0165    8.5917 C.ar    1  UNL1       -0.0003
     24 C          60.3736   89.3881    8.8981 C.ar    1  UNL1       -0.0000
     25 C          61.5368   89.5556    9.8304 C.ar    1  UNL1       -0.0003
     26 C          62.1759   88.3514   10.4561 C.ar    1  UNL1       -0.0042
@<TRIPOS>BOND
     1     1     2    1
     2     2    21    1
     3    21    22   ar
     4    22    23   ar
     5    23    24   ar
     6    24    25   ar
     7    25    26   ar
     8     2     3    1
     9     3     4    1
    10     4     5    1
    11     5     6    1
    12     6     7   am
    13     7     8    2
    14     7     9   am
    15     9    12    1
    16    12    13   ar
    17    13    14   ar
    18    14    15   ar
    19    15    16   ar
    20    16    17   ar
    21    17    18   ar
    22    18    19   ar
    23    19    20   ar
    24     6    10    1
    25    10     2    1
    26    26    21   ar
    27    20    12   ar
    28    20    15   ar
    29     9    11    1
@<TRIPOS>MOLECULE
*****
 26 29 0 0 0
SMALL
GASTEIGER

@<TRIPOS>ATOM
      1 C          62.9978   82.9117   10.9322 C.3     1  UNL1        0.0061
      2 C          63.2188   83.8458   12.0848 C.3     1  UNL1        0.0373
      3 C          63.5614   82.5400   12.7385 C.3     1  UNL1        0.0075
      4 C          63.9794   82.5091   14.1787 C.3     1  UNL1        0.0219
      5 C          64.0547   83.7840   14.9654 C.3     1  UNL1        0.0950
      6 N          63.7120   85.0899   14.3117 N.am    1  UNL1       -0.2636
      7 C          63.7874   86.3648   15.0983 C.2     1  UNL1        0.3088
      8 O          64.2053   86.3339   16.5386 O.2     1  UNL1       -0.2522
      9 N          63.4447   87.6708   14.4447 N.am    1  UNL1       -0.2508
     10 C          63.2941   85.1208   12.8715 C.3     1  UNL1        0.0989
     11 H          63.1703   87.6911   13.4994 H       1  UNL1        0.1579
     12 C          63.5200   88.9458   15.2313 C.ar    1  UNL1        0.1773
     13 N          62.6437   89.3201   16.3898 N.ar    1  UNL1       -0.0617
     14 O          63.0670   90.6759   16.8720 O.2     1  UNL1       -0.3521
     15 C          64.2049   91.1395   16.0116 C.ar    1  UNL1        0.1781
     16 C          65.0222   92.3972   16.0204 C.ar    1  UNL1        0.0403
     17 C          66.1195   92.5856   15.0153 C.ar    1  UNL1        0.0032
     18 C          66.3995   91.5163   14.0013 C.ar    1  UNL1        0.0003
     19 C          65.5821   90.2586   13.9924 C.ar    1  UNL1        0.0060
     20 C          64.4848   90.0702   14.9976 C.ar    1  UNL1        0.0721
     21 C          62.7994   84.8273   11.0309 C.ar    1  UNL1       -0.0212
     22 C          61.9203   85.9874   11.3935 C.ar    1  UNL1       -0.0042
     23 C          61.5010   86.9688   10.3396 C.ar    1  UNL1       -0.0003
     24 C          61.9606   86.7903    8.9230 C.ar    1  UNL1       -0.0000
     25 C          62.8397   85.6302    8.5603 C.ar    1  UNL1       -0.0003
     26 C          63.2591   84.6487    9.6143 C.ar    1  UNL1       -0.0042
@<TRIPOS>BOND
     1     1     2    1
     2     2    21    1
     3    21    22   ar
     4    22    23   ar
     5    23    24   ar
     6    24    25   ar
     7    25    26   ar
     8     2     3    1
     9     3     4    1
    10     4     5    1
    11     5     6    1
    12     6     7   am
    13     7     8    2
    14     7     9   am
    15     9    12    1
    16    12    13   ar
    17    13    14   ar
    18    14    15   ar
    19    15    16   ar
    20    16    17   ar
    21    17    18   ar
    22    18    19   ar
    23    19    20   ar
    24     6    10    1
    25    10     2    1
    26    26    21   ar
    27    20    12   ar
    28    20    15   ar
    29     9    11    1
@<TRIPOS>MOLECULE
*****
 26 29 0 0 0
SMALL
GASTEIGER

@<TRIPOS>ATOM
      1 C          62.6015   90.8179   12.6829 C.3     1  UNL1        0.0061
      2 C          62.9571   89.3657   12.8037 C.3     1  UNL1        0.0373
      3 C          63.6775   89.9108   14.0011 C.3     1  UNL1        0.0075
      4 C          64.4605   88.9896   14.8889 C.3     1  UNL1        0.0219
      5 C          64.5231   87.5232   14.5794 C.3     1  UNL1        0.0950
      6 N          63.8027   86.9781   13.3820 N.am    1  UNL1       -0.2636
      7 C          63.8653   85.5117   13.0724 C.2     1  UNL1        0.3088
      8 O          64.6483   84.5905   13.9602 O.2     1  UNL1       -0.2522
      9 N          63.1449   84.9666   11.8749 N.am    1  UNL1       -0.2508
     10 C          63.0197   87.8993   12.4941 C.3     1  UNL1        0.0989
     11 H          62.6309   85.5712   11.2922 H       1  UNL1        0.1579
     12 C          63.2075   83.5002   11.5653 C.ar    1  UNL1        0.1773
     13 N          63.7974   82.8839   10.3316 N.ar    1  UNL1       -0.0617
     14 O          63.6456   81.3955   10.4390 O.2     1  UNL1       -0.3521
     15 C          62.9618   81.0919   11.7391 C.ar    1  UNL1        0.1781
     16 C          62.5508   79.7990   12.3789 C.ar    1  UNL1        0.0403
     17 C          61.8690   79.8069   13.7149 C.ar    1  UNL1        0.0032
     18 C          61.5982   81.1077   14.4111 C.ar    1  UNL1        0.0003
     19 C          62.0092   82.4006   13.7712 C.ar    1  UNL1        0.0060
     20 C          62.6910   82.3927   12.4352 C.ar    1  UNL1        0.0721
     21 C          62.1132   89.3249   11.5643 C.ar    1  UNL1       -0.0212
     22 C          62.3686   88.2818   10.5170 C.ar    1  UNL1       -0.0042
     23 C          61.5246   88.2411    9.2777 C.ar    1  UNL1       -0.0003
     24 C          60.4253   89.2433    9.0856 C.ar    1  UNL1       -0.0000
     25 C          60.1698   90.2864   10.1329 C.ar    1  UNL1       -0.0003
     26 C          61.0138   90.3272   11.3722 C.ar    1  UNL1       -0.0042
@<TRIPOS>BOND
     1     1     2    1
     2     2    21    1
     3    21    22   ar
     4    22    23   ar
     5    23    24   ar
     6    24    25   ar
     7    25    26   ar
     8     2     3    1
     9     3     4    1
    10     4     5    1
    11     5     6    1
    12     6     7   am
    13     7     8    2
    14     7     9   am
    15     9    12    1
    16    12    13   ar
    17    13    14   ar
    18    14    15   ar
    19    15    16   ar
    20    16    17   ar
    21    17    18   ar
    22    18    19   ar
    23    19    20   ar
    24     6    10    1
    25    10     2    1
    26    26    21   ar
    27    20    12   ar
    28    20    15   ar
    29     9    11    1
@<TRIPOS>MOLECULE
*****
 26 29 0 0 0
SMALL
GASTEIGER

@<TRIPOS>ATOM
      1 C          62.9472   81.7969   10.7114 C.3     1  UNL1        0.0061
      2 C          63.0957   82.6307   11.9494 C.3     1  UNL1        0.0373
      3 C          63.2563   81.2603   12.5376 C.3     1  UNL1        0.0075
      4 C          63.4917   81.0990   14.0102 C.3     1  UNL1        0.0219
      5 C          63.5666   82.3082   14.8947 C.3     1  UNL1        0.0950
      6 N          63.4060   83.6786   14.3065 N.am    1  UNL1       -0.2636
      7 C          63.4809   84.8878   15.1909 C.2     1  UNL1        0.3088
      8 O          63.7163   84.7265   16.6635 O.2     1  UNL1       -0.2522
      9 N          63.3204   86.2584   14.6028 N.am    1  UNL1       -0.2508
     10 C          63.1706   83.8399   12.8339 C.3     1  UNL1        0.0989
     11 H          63.1658   86.3643   13.6363 H       1  UNL1        0.1579
     12 C          63.3952   87.4676   15.4872 C.ar    1  UNL1        0.1773
     13 N          63.1074   87.5026   16.9589 N.ar    1  UNL1       -0.0617
     14 O          63.3054   88.9107   17.4365 O.2     1  UNL1       -0.3521
     15 C          63.7155   89.7459   16.2599 C.ar    1  UNL1        0.1781
     16 C          64.0456   91.2033   16.1300 C.ar    1  UNL1        0.0403
     17 C          64.4312   91.7688   14.7952 C.ar    1  UNL1        0.0032
     18 C          64.4867   90.8769   13.5905 C.ar    1  UNL1        0.0003
     19 C          64.1567   89.4195   13.7205 C.ar    1  UNL1        0.0060
     20 C          63.7711   88.8540   15.0552 C.ar    1  UNL1        0.0721
     21 C          62.8836   83.7117   10.9313 C.ar    1  UNL1       -0.0212
     22 C          63.5427   83.6160    9.5873 C.ar    1  UNL1       -0.0042
     23 C          63.3305   84.6971    8.5693 C.ar    1  UNL1       -0.0003
     24 C          62.4593   85.8737    8.8952 C.ar    1  UNL1       -0.0000
     25 C          61.8001   85.9694   10.2393 C.ar    1  UNL1       -0.0003
     26 C          62.0123   84.8884   11.2573 C.ar    1  UNL1       -0.0042
@<TRIPOS>BOND
     1     1     2    1
     2     2    21    1
     3    21    22   ar
     4    22    23   ar
     5    23    24   ar
     6    24    25   ar
     7    25    26   ar
     8     2     3    1
     9     3     4    1
    10     4     5    1
    11     5     6    1
    12     6     7   am
    13     7     8    2
    14     7     9   am
    15     9    12    1
    16    12    13   ar
    17    13    14   ar
    18    14    15   ar
    19    15    16   ar
    20    16    17   ar
    21    17    18   ar
    22    18    19   ar
    23    19    20   ar
    24     6    10    1
    25    10     2    1
    26    26    21   ar
    27    20    12   ar
    28    20    15   ar
    29     9    11    1
@<TRIPOS>MOLECULE
*****
 26 29 0 0 0
SMALL
GASTEIGER

@<TRIPOS>ATOM
      1 C          63.3482   89.5886   12.1251 C.3     1  UNL1        0.0061
      2 C          63.4138   88.1982   12.6840 C.3     1  UNL1        0.0373
      3 C          64.1972   88.9360   13.7289 C.3     1  UNL1        0.0075
      4 C          64.7662   88.1949   14.9023 C.3     1  UNL1        0.0219
      5 C          64.5519   86.7159   15.0309 C.3     1  UNL1        0.0950
      6 N          63.7685   85.9780   13.9860 N.am    1  UNL1       -0.2636
      7 C          63.5542   84.4990   14.1146 C.2     1  UNL1        0.3088
      8 O          64.1232   83.7579   15.2880 O.2     1  UNL1       -0.2522
      9 N          62.7708   83.7610   13.0696 N.am    1  UNL1       -0.2508
     10 C          63.1995   86.7191   12.8125 C.3     1  UNL1        0.0989
     11 H          62.3974   84.2474   12.2994 H       1  UNL1        0.1579
     12 C          62.5565   82.2820   13.1982 C.ar    1  UNL1        0.1773
     13 N          62.1349   81.5570   14.4419 N.ar    1  UNL1       -0.0617
     14 O          62.0440   80.0952   14.1179 O.2     1  UNL1       -0.3521
     15 C          62.4094   79.9168   12.6741 C.ar    1  UNL1        0.1781
     16 C          62.4947   78.6982   11.8036 C.ar    1  UNL1        0.0403
     17 C          62.8967   78.8312   10.3646 C.ar    1  UNL1        0.0032
     18 C          63.2134   80.1827    9.7962 C.ar    1  UNL1        0.0003
     19 C          63.1282   81.4012   10.6667 C.ar    1  UNL1        0.0060
     20 C          62.7262   81.2683   12.1057 C.ar    1  UNL1        0.0721
     21 C          62.6077   87.9431   11.4450 C.ar    1  UNL1       -0.0212
     22 C          62.2324   86.5400   11.0700 C.ar    1  UNL1       -0.0042
     23 C          61.4263   86.2850    9.8310 C.ar    1  UNL1       -0.0003
     24 C          60.9954   87.4330    8.9670 C.ar    1  UNL1       -0.0000
     25 C          61.3707   88.8361    9.3420 C.ar    1  UNL1       -0.0003
     26 C          62.1768   89.0911   10.5810 C.ar    1  UNL1       -0.0042
@<TRIPOS>BOND
     1     1     2    1
     2     2    21    1
     3    21    22   ar
     4    22    23   ar
     5    23    24   ar
     6    24    25   ar
     7    25    26   ar
     8     2     3    1
     9     3     4    1
    10     4     5    1
    11     5     6    1
    12     6     7   am
    13     7     8    2
    14     7     9   am
    15     9    12    1
    16    12    13   ar
    17    13    14   ar
    18    14    15   ar
    19    15    16   ar
    20    16    17   ar
    21    17    18   ar
    22    18    19   ar
    23    19    20   ar
    24     6    10    1
    25    10     2    1
    26    26    21   ar
    27    20    12   ar
    28    20    15   ar
    29     9    11    1
