@<TRIPOS>MOLECULE
*****
 32 35 0 0 0
SMALL
GASTEIGER

@<TRIPOS>ATOM
      1 N          62.4384   87.3906   11.8314 N.3     1  UNL1       -0.2679
      2 C          62.7882   88.8147   11.5155 C.3     1  UNL1        0.0978
      3 C          62.3672   89.4181   10.2084 C.3     1  UNL1        0.0224
      4 C          62.7170   90.8422    9.8926 C.3     1  UNL1        0.0065
      5 C          63.4877   91.6628   10.8838 C.3     1  UNL1        0.0277
      6 C          63.9086   91.0593   12.1909 C.ar    1  UNL1       -0.0073
      7 C          64.6794   91.8799   13.1822 C.ar    1  UNL1       -0.0015
      8 C          65.1003   91.2764   14.4894 C.ar    1  UNL1        0.0203
      9 C          64.7506   89.8524   14.8052 C.ar    1  UNL1        0.0985
     10 N          63.9799   89.0318   13.8140 N.ar    1  UNL1       -0.2471
     11 C          63.5589   89.6353   12.5068 C.ar    1  UNL1        0.0695
     12 C          61.0941   86.8460   11.4490 C.3     1  UNL1        0.0725
     13 C          60.8348   86.4119   10.0368 C.3     1  UNL1        0.0187
     14 C          61.9834   86.0760    9.1325 C.3     1  UNL1        0.0156
     15 C          60.3484   86.0489    7.7812 C.3     1  UNL1        0.0155
     16 C          61.7255   85.4544    7.7919 C.3     1  UNL1        0.0390
     17 C          63.1027   84.8600    7.8026 C.3     1  UNL1        0.0155
     18 N          61.4677   84.8329    6.4513 N.3     1  UNL1       -0.3232
     19 H          60.5264   85.0731    6.1405 H       1  UNL1        0.1188
     20 H          61.5533   83.8191    6.5244 H       1  UNL1        0.1188
     21 C          63.4329   86.5112   12.5296 C.3     1  UNL1        0.0886
     22 C          63.0447   85.1234   12.9459 C.3     1  UNL1        0.0748
     23 C          63.2535   83.9726   12.0068 C.3     1  UNL1        0.0432
     24 C          62.8652   82.5848   12.4231 C.ar    1  UNL1       -0.0234
     25 C          63.0740   81.4340   11.4839 C.ar    1  UNL1       -0.0045
     26 C          62.6858   80.0463   11.9002 C.ar    1  UNL1       -0.0003
     27 C          62.0888   79.8093   13.2557 C.ar    1  UNL1       -0.0003
     28 C          61.8800   80.9601   14.1949 C.ar    1  UNL1       -0.0032
     29 C          62.2682   82.3478   13.7786 C.ar    1  UNL1       -0.0103
     30 C          62.0594   83.4987   14.7178 C.3     1  UNL1        0.0953
     31 N          62.4477   84.8864   14.3014 N.3     1  UNL1       -0.2934
     32 H          63.1276   85.2195   14.9850 H       1  UNL1        0.1236
@<TRIPOS>BOND
     1    15    16    1
     2    16    17    1
     3    16    18    1
     4    16    14    1
     5    14    13    1
     6    13    12    1
     7    12     1    1
     8     1    21    1
     9    22    21    1
    10    22    23    1
    11    23    24    1
    12    24    25   ar
    13    25    26   ar
    14    26    27   ar
    15    27    28   ar
    16    28    29   ar
    17    29    30    1
    18    30    31    1
    19     2     1    1
    20     2     3    1
    21     3     4    1
    22     4     5    1
    23     5     6    1
    24     6     7   ar
    25     7     8   ar
    26     8     9   ar
    27     9    10   ar
    28    10    11   ar
    29    31    22    1
    30    11     2    1
    31    29    24   ar
    32    11     6   ar
    33    18    19    1
    34    18    20    1
    35    31    32    1
@<TRIPOS>MOLECULE
*****
 32 35 0 0 0
SMALL
GASTEIGER

@<TRIPOS>ATOM
      1 N          63.3483   88.8343   13.5155 N.3     1  UNL1       -0.2679
      2 C          62.8898   89.1876   12.1316 C.3     1  UNL1        0.0978
      3 C          63.0341   90.5937   11.6298 C.3     1  UNL1        0.0224
      4 C          62.5756   90.9470   10.2460 C.3     1  UNL1        0.0065
      5 C          61.9727   89.8941    9.3640 C.3     1  UNL1        0.0277
      6 C          61.8283   88.4880    9.8659 C.ar    1  UNL1       -0.0073
      7 C          61.2254   87.4350    8.9839 C.ar    1  UNL1       -0.0015
      8 C          61.0811   86.0289    9.4857 C.ar    1  UNL1        0.0203
      9 C          61.5396   85.6756   10.8695 C.ar    1  UNL1        0.0985
     10 N          62.1425   86.7285   11.7515 N.ar    1  UNL1       -0.2471
     11 C          62.2869   88.1347   11.2497 C.ar    1  UNL1        0.0695
     12 C          64.0073   87.5116   13.7724 C.3     1  UNL1        0.0725
     13 C          64.5401   87.1917   15.1376 C.3     1  UNL1        0.0187
     14 C          64.0672   85.9643   15.8587 C.3     1  UNL1        0.0156
     15 C          63.0605   87.2473   17.2153 C.3     1  UNL1        0.0155
     16 C          62.7243   85.9578   16.5268 C.3     1  UNL1        0.0390
     17 C          62.3880   84.6683   15.8384 C.3     1  UNL1        0.0155
     18 N          61.3813   85.9512   17.1950 N.3     1  UNL1       -0.3232
     19 H          61.2924   86.7764   17.7879 H       1  UNL1        0.1188
     20 H          61.2897   85.1109   17.7659 H       1  UNL1        0.1188
     21 C          63.1480   89.8038   14.6423 C.3     1  UNL1        0.0886
     22 C          64.2666   90.7129   15.0575 C.3     1  UNL1        0.0748
     23 C          65.5598   90.7062   14.2975 C.3     1  UNL1        0.0432
     24 C          66.6785   91.6153   14.7127 C.ar    1  UNL1       -0.0234
     25 C          67.9716   91.6086   13.9527 C.ar    1  UNL1       -0.0045
     26 C          69.0902   92.5176   14.3679 C.ar    1  UNL1       -0.0003
     27 C          68.9156   93.4334   15.5431 C.ar    1  UNL1       -0.0003
     28 C          67.6224   93.4401   16.3030 C.ar    1  UNL1       -0.0032
     29 C          66.5038   92.5310   15.8878 C.ar    1  UNL1       -0.0103
     30 C          65.2105   92.5377   16.6478 C.3     1  UNL1        0.0953
     31 N          64.0920   91.6286   16.2326 N.3     1  UNL1       -0.2934
     32 H          63.2902   92.2241   16.0253 H       1  UNL1        0.1236
@<TRIPOS>BOND
     1    15    16    1
     2    16    17    1
     3    16    18    1
     4    16    14    1
     5    14    13    1
     6    13    12    1
     7    12     1    1
     8     1    21    1
     9    22    21    1
    10    22    23    1
    11    23    24    1
    12    24    25   ar
    13    25    26   ar
    14    26    27   ar
    15    27    28   ar
    16    28    29   ar
    17    29    30    1
    18    30    31    1
    19     2     1    1
    20     2     3    1
    21     3     4    1
    22     4     5    1
    23     5     6    1
    24     6     7   ar
    25     7     8   ar
    26     8     9   ar
    27     9    10   ar
    28    10    11   ar
    29    31    22    1
    30    11     2    1
    31    29    24   ar
    32    11     6   ar
    33    18    19    1
    34    18    20    1
    35    31    32    1
@<TRIPOS>MOLECULE
*****
 32 35 0 0 0
SMALL
GASTEIGER

@<TRIPOS>ATOM
      1 N          62.0229   87.9571   11.2007 N.3     1  UNL1       -0.2679
      2 C          62.7576   89.2598   11.3156 C.3     1  UNL1        0.0978
      3 C          62.7822   90.2118   10.1568 C.3     1  UNL1        0.0224
      4 C          63.5169   91.5144   10.2717 C.3     1  UNL1        0.0065
      5 C          64.2270   91.8651   11.5455 C.3     1  UNL1        0.0277
      6 C          64.2024   90.9131   12.7044 C.ar    1  UNL1       -0.0073
      7 C          64.9126   91.2638   13.9783 C.ar    1  UNL1       -0.0015
      8 C          64.8880   90.3118   15.1372 C.ar    1  UNL1        0.0203
      9 C          64.1533   89.0091   15.0223 C.ar    1  UNL1        0.0985
     10 N          63.4431   88.6584   13.7484 N.ar    1  UNL1       -0.2471
     11 C          63.4677   89.6104   12.5895 C.ar    1  UNL1        0.0695
     12 C          60.5500   87.8997   11.4785 C.3     1  UNL1        0.0725
     13 C          59.5681   88.1970   10.3840 C.3     1  UNL1        0.0187
     14 C          60.0562   88.4677    8.9918 C.3     1  UNL1        0.0156
     15 C          59.1105   88.8800    7.1383 C.3     1  UNL1        0.0155
     16 C          59.5575   87.6361    7.8473 C.3     1  UNL1        0.0390
     17 C          60.0045   86.3922    8.5564 C.3     1  UNL1        0.0155
     18 N          59.0588   86.8045    6.7029 N.3     1  UNL1       -0.3232
     19 H          58.6592   87.4135    5.9888 H       1  UNL1        0.1188
     20 H          58.3439   86.1588    7.0380 H       1  UNL1        0.1188
     21 C          62.7611   86.7118   10.8079 C.3     1  UNL1        0.0886
     22 C          62.7388   85.5115   11.7073 C.3     1  UNL1        0.0748
     23 C          62.7615   84.1323   11.1182 C.3     1  UNL1        0.0432
     24 C          62.7393   82.9320   12.0176 C.ar    1  UNL1       -0.0234
     25 C          62.7620   81.5528   11.4284 C.ar    1  UNL1       -0.0045
     26 C          62.7398   80.3526   12.3278 C.ar    1  UNL1       -0.0003
     27 C          62.6949   80.5316   13.8164 C.ar    1  UNL1       -0.0003
     28 C          62.6722   81.9108   14.4056 C.ar    1  UNL1       -0.0032
     29 C          62.6944   83.1110   13.5062 C.ar    1  UNL1       -0.0103
     30 C          62.6717   84.4904   14.0954 C.3     1  UNL1        0.0953
     31 N          62.6939   85.6905   13.1959 N.3     1  UNL1       -0.2934
     32 H          63.5174   86.2352   13.4520 H       1  UNL1        0.1236
@<TRIPOS>BOND
     1    15    16    1
     2    16    17    1
     3    16    18    1
     4    16    14    1
     5    14    13    1
     6    13    12    1
     7    12     1    1
     8     1    21    1
     9    22    21    1
    10    22    23    1
    11    23    24    1
    12    24    25   ar
    13    25    26   ar
    14    26    27   ar
    15    27    28   ar
    16    28    29   ar
    17    29    30    1
    18    30    31    1
    19     2     1    1
    20     2     3    1
    21     3     4    1
    22     4     5    1
    23     5     6    1
    24     6     7   ar
    25     7     8   ar
    26     8     9   ar
    27     9    10   ar
    28    10    11   ar
    29    31    22    1
    30    11     2    1
    31    29    24   ar
    32    11     6   ar
    33    18    19    1
    34    18    20    1
    35    31    32    1
@<TRIPOS>MOLECULE
*****
 32 35 0 0 0
SMALL
GASTEIGER

@<TRIPOS>ATOM
      1 N          63.5622   90.5897   11.7558 N.3     1  UNL1       -0.2679
      2 C          64.5443   91.7229   11.7896 C.3     1  UNL1        0.0978
      3 C          64.8849   92.4582   10.5274 C.3     1  UNL1        0.0224
      4 C          65.8671   93.5914   10.5612 C.3     1  UNL1        0.0065
      5 C          66.5087   93.9894   11.8573 C.3     1  UNL1        0.0277
      6 C          66.1681   93.2541   13.1196 C.ar    1  UNL1       -0.0073
      7 C          66.8097   93.6521   14.4158 C.ar    1  UNL1       -0.0015
      8 C          66.4691   92.9168   15.6780 C.ar    1  UNL1        0.0203
      9 C          65.4870   91.7836   15.6442 C.ar    1  UNL1        0.0985
     10 N          64.8454   91.3856   14.3481 N.ar    1  UNL1       -0.2471
     11 C          65.1859   92.1209   13.0857 C.ar    1  UNL1        0.0695
     12 C          63.0307   90.0968   10.4426 C.3     1  UNL1        0.0725
     13 C          61.6992   90.5759    9.9449 C.3     1  UNL1        0.0187
     14 C          60.5711   89.6036    9.7664 C.3     1  UNL1        0.0156
     15 C          60.2005   87.6139   10.4014 C.3     1  UNL1        0.0155
     16 C          59.9251   88.9760   10.9659 C.3     1  UNL1        0.0390
     17 C          59.6497   90.3382   11.5303 C.3     1  UNL1        0.0155
     18 N          59.2791   88.3484   12.1654 N.3     1  UNL1       -0.3232
     19 H          59.3092   87.3328   12.0755 H       1  UNL1        0.1188
     20 H          58.3085   88.6555   12.2285 H       1  UNL1        0.1188
     21 C          63.1115   89.9494   13.0352 C.3     1  UNL1        0.0886
     22 C          63.4216   88.5061   13.3015 C.3     1  UNL1        0.0748
     23 C          62.9409   87.4483   12.3529 C.3     1  UNL1        0.0432
     24 C          63.2510   86.0050   12.6192 C.ar    1  UNL1       -0.0234
     25 C          62.7703   84.9472   11.6706 C.ar    1  UNL1       -0.0045
     26 C          63.0805   83.5040   11.9369 C.ar    1  UNL1       -0.0003
     27 C          63.8713   83.1187   13.1518 C.ar    1  UNL1       -0.0003
     28 C          64.3520   84.1765   14.1004 C.ar    1  UNL1       -0.0032
     29 C          64.0419   85.6197   13.8341 C.ar    1  UNL1       -0.0103
     30 C          64.5226   86.6776   14.7827 C.3     1  UNL1        0.0953
     31 N          64.2125   88.1208   14.5164 N.3     1  UNL1       -0.2934
     32 H          65.1067   88.6071   14.4520 H       1  UNL1        0.1236
@<TRIPOS>BOND
     1    15    16    1
     2    16    17    1
     3    16    18    1
     4    16    14    1
     5    14    13    1
     6    13    12    1
     7    12     1    1
     8     1    21    1
     9    22    21    1
    10    22    23    1
    11    23    24    1
    12    24    25   ar
    13    25    26   ar
    14    26    27   ar
    15    27    28   ar
    16    28    29   ar
    17    29    30    1
    18    30    31    1
    19     2     1    1
    20     2     3    1
    21     3     4    1
    22     4     5    1
    23     5     6    1
    24     6     7   ar
    25     7     8   ar
    26     8     9   ar
    27     9    10   ar
    28    10    11   ar
    29    31    22    1
    30    11     2    1
    31    29    24   ar
    32    11     6   ar
    33    18    19    1
    34    18    20    1
    35    31    32    1
@<TRIPOS>MOLECULE
*****
 32 35 0 0 0
SMALL
GASTEIGER

@<TRIPOS>ATOM
      1 N          63.6097   88.5597   13.9274 N.3     1  UNL1       -0.2679
      2 C          63.2784   89.1214   12.5766 C.3     1  UNL1        0.0978
      3 C          63.7168   90.5091   12.2133 C.3     1  UNL1        0.0224
      4 C          63.3855   91.0709   10.8625 C.3     1  UNL1        0.0065
      5 C          62.6159   90.2449    9.8750 C.3     1  UNL1        0.0277
      6 C          62.1775   88.8571   10.2382 C.ar    1  UNL1       -0.0073
      7 C          61.4078   88.0311    9.2507 C.ar    1  UNL1       -0.0015
      8 C          60.9694   86.6433    9.6139 C.ar    1  UNL1        0.0203
      9 C          61.3007   86.0816   10.9647 C.ar    1  UNL1        0.0985
     10 N          62.0704   86.9076   11.9523 N.ar    1  UNL1       -0.2471
     11 C          62.5088   88.2954   11.5891 C.ar    1  UNL1        0.0695
     12 C          63.0813   89.2219   15.1652 C.3     1  UNL1        0.0725
     13 C          63.8399   90.3537   15.7925 C.3     1  UNL1        0.0187
     14 C          64.9117   91.0596   15.0161 C.3     1  UNL1        0.0156
     15 C          66.8498   91.8470   14.6641 C.3     1  UNL1        0.0155
     16 C          65.7830   92.0754   15.6935 C.3     1  UNL1        0.0390
     17 C          64.7162   92.3039   16.7229 C.3     1  UNL1        0.0155
     18 N          66.6543   93.0913   16.3710 N.3     1  UNL1       -0.3232
     19 H          67.5357   93.1751   15.8646 H       1  UNL1        0.1188
     20 H          66.8396   92.7953   17.3294 H       1  UNL1        0.1188
     21 C          64.4695   87.3358   14.0404 C.3     1  UNL1        0.0886
     22 C          63.8349   85.9816   14.1570 C.3     1  UNL1        0.0748
     23 C          64.0282   84.9667   13.0695 C.3     1  UNL1        0.0432
     24 C          63.3936   83.6125   13.1861 C.ar    1  UNL1       -0.0234
     25 C          63.5868   82.5976   12.0986 C.ar    1  UNL1       -0.0045
     26 C          62.9523   81.2434   12.2152 C.ar    1  UNL1       -0.0003
     27 C          62.1245   80.9042   13.4192 C.ar    1  UNL1       -0.0003
     28 C          61.9312   81.9191   14.5067 C.ar    1  UNL1       -0.0032
     29 C          62.5658   83.2732   14.3901 C.ar    1  UNL1       -0.0103
     30 C          62.3725   84.2882   15.4776 C.3     1  UNL1        0.0953
     31 N          63.0071   85.6423   15.3610 N.3     1  UNL1       -0.2934
     32 H          63.6112   85.7555   16.1750 H       1  UNL1        0.1236
@<TRIPOS>BOND
     1    15    16    1
     2    16    17    1
     3    16    18    1
     4    16    14    1
     5    14    13    1
     6    13    12    1
     7    12     1    1
     8     1    21    1
     9    22    21    1
    10    22    23    1
    11    23    24    1
    12    24    25   ar
    13    25    26   ar
    14    26    27   ar
    15    27    28   ar
    16    28    29   ar
    17    29    30    1
    18    30    31    1
    19     2     1    1
    20     2     3    1
    21     3     4    1
    22     4     5    1
    23     5     6    1
    24     6     7   ar
    25     7     8   ar
    26     8     9   ar
    27     9    10   ar
    28    10    11   ar
    29    31    22    1
    30    11     2    1
    31    29    24   ar
    32    11     6   ar
    33    18    19    1
    34    18    20    1
    35    31    32    1
@<TRIPOS>MOLECULE
*****
 32 35 0 0 0
SMALL
GASTEIGER

@<TRIPOS>ATOM
      1 N          61.8949   87.7678   11.6796 N.3     1  UNL1       -0.2679
      2 C          62.3570   86.5907   10.8729 C.3     1  UNL1        0.0978
      3 C          62.5458   86.7247    9.3909 C.3     1  UNL1        0.0224
      4 C          63.0079   85.5476    8.5842 C.3     1  UNL1        0.0065
      5 C          63.2813   84.2364    9.2595 C.3     1  UNL1        0.0277
      6 C          63.0925   84.1023   10.7415 C.ar    1  UNL1       -0.0073
      7 C          63.3658   82.7911   11.4168 C.ar    1  UNL1       -0.0015
      8 C          63.1770   82.6571   12.8988 C.ar    1  UNL1        0.0203
      9 C          62.7149   83.8342   13.7055 C.ar    1  UNL1        0.0985
     10 N          62.4416   85.1454   13.0303 N.ar    1  UNL1       -0.2471
     11 C          62.6304   85.2795   11.5482 C.ar    1  UNL1        0.0695
     12 C          60.4743   88.2376   11.5749 C.3     1  UNL1        0.0725
     13 C          59.9462   88.7433   10.2651 C.3     1  UNL1        0.0187
     14 C          59.3653   87.7833    9.2697 C.3     1  UNL1        0.0156
     15 C          58.9453   86.7273    7.4785 C.3     1  UNL1        0.0155
     16 C          59.3510   88.1325    7.8110 C.3     1  UNL1        0.0390
     17 C          59.7568   89.5378    8.1435 C.3     1  UNL1        0.0155
     18 N          59.3368   88.4818    6.3523 N.3     1  UNL1       -0.3232
     19 H          59.0734   87.6601    5.8085 H       1  UNL1        0.1188
     20 H          60.2654   88.7941    6.0684 H       1  UNL1        0.1188
     21 C          62.8535   88.4752   12.5911 C.3     1  UNL1        0.0886
     22 C          63.4834   89.7667   12.1607 C.3     1  UNL1        0.0748
     23 C          64.3708   90.5202   13.1065 C.3     1  UNL1        0.0432
     24 C          65.0007   91.8118   12.6761 C.ar    1  UNL1       -0.0234
     25 C          65.8882   92.5652   13.6219 C.ar    1  UNL1       -0.0045
     26 C          66.5180   93.8567   13.1915 C.ar    1  UNL1       -0.0003
     27 C          66.2603   94.3947   11.8152 C.ar    1  UNL1       -0.0003
     28 C          65.3729   93.6413   10.8694 C.ar    1  UNL1       -0.0032
     29 C          64.7431   92.3498   11.2998 C.ar    1  UNL1       -0.0103
     30 C          63.8555   91.5962   10.3539 C.3     1  UNL1        0.0953
     31 N          63.2257   90.3047   10.7844 N.3     1  UNL1       -0.2934
     32 H          63.5380   89.5910   10.1260 H       1  UNL1        0.1236
@<TRIPOS>BOND
     1    15    16    1
     2    16    17    1
     3    16    18    1
     4    16    14    1
     5    14    13    1
     6    13    12    1
     7    12     1    1
     8     1    21    1
     9    22    21    1
    10    22    23    1
    11    23    24    1
    12    24    25   ar
    13    25    26   ar
    14    26    27   ar
    15    27    28   ar
    16    28    29   ar
    17    29    30    1
    18    30    31    1
    19     2     1    1
    20     2     3    1
    21     3     4    1
    22     4     5    1
    23     5     6    1
    24     6     7   ar
    25     7     8   ar
    26     8     9   ar
    27     9    10   ar
    28    10    11   ar
    29    31    22    1
    30    11     2    1
    31    29    24   ar
    32    11     6   ar
    33    18    19    1
    34    18    20    1
    35    31    32    1
@<TRIPOS>MOLECULE
*****
 32 35 0 0 0
SMALL
GASTEIGER

@<TRIPOS>ATOM
      1 N          61.7174   87.7521   11.1065 N.3     1  UNL1       -0.2679
      2 C          60.9024   87.3781    9.9040 C.3     1  UNL1        0.0978
      3 C          59.5326   87.9596    9.7160 C.3     1  UNL1        0.0224
      4 C          58.7175   87.5855    8.5136 C.3     1  UNL1        0.0065
      5 C          59.2723   86.6300    7.4992 C.3     1  UNL1        0.0277
      6 C          60.6421   86.0485    7.6872 C.ar    1  UNL1       -0.0073
      7 C          61.1970   85.0929    6.6727 C.ar    1  UNL1       -0.0015
      8 C          62.5668   84.5114    6.8607 C.ar    1  UNL1        0.0203
      9 C          63.3819   84.8855    8.0631 C.ar    1  UNL1        0.0985
     10 N          62.8271   85.8410    9.0776 N.ar    1  UNL1       -0.2471
     11 C          61.4572   86.4225    8.8896 C.ar    1  UNL1        0.0695
     12 C          62.6219   86.7395   11.7440 C.3     1  UNL1        0.0725
     13 C          62.0903   85.3863   12.1135 C.3     1  UNL1        0.0187
     14 C          62.8408   84.5257   13.0862 C.3     1  UNL1        0.0156
     15 C          63.0065   83.1178   11.5082 C.3     1  UNL1        0.0155
     16 C          63.9177   83.6038   12.5961 C.3     1  UNL1        0.0390
     17 C          64.8288   84.0898   13.6839 C.3     1  UNL1        0.0155
     18 N          64.9947   82.6818   12.1059 N.3     1  UNL1       -0.3232
     19 H          64.6546   82.1612   11.2974 H       1  UNL1        0.1188
     20 H          65.2478   82.0297   12.8483 H       1  UNL1        0.1188
     21 C          61.6280   89.1388   11.6713 C.3     1  UNL1        0.0886
     22 C          62.7889   89.7183   12.4241 C.3     1  UNL1        0.0748
     23 C          63.5265   90.9012   11.8705 C.3     1  UNL1        0.0432
     24 C          64.6874   91.4807   12.6233 C.ar    1  UNL1       -0.0234
     25 C          65.4251   92.6636   12.0697 C.ar    1  UNL1       -0.0045
     26 C          66.5858   93.2430   12.8225 C.ar    1  UNL1       -0.0003
     27 C          67.0090   92.6396   14.1289 C.ar    1  UNL1       -0.0003
     28 C          66.2713   91.4567   14.6826 C.ar    1  UNL1       -0.0032
     29 C          65.1105   90.8773   13.9298 C.ar    1  UNL1       -0.0103
     30 C          64.3728   89.6943   14.4834 C.3     1  UNL1        0.0953
     31 N          63.2120   89.1149   13.7306 N.3     1  UNL1       -0.2934
     32 H          62.4046   89.1625   14.3522 H       1  UNL1        0.1236
@<TRIPOS>BOND
     1    15    16    1
     2    16    17    1
     3    16    18    1
     4    16    14    1
     5    14    13    1
     6    13    12    1
     7    12     1    1
     8     1    21    1
     9    22    21    1
    10    22    23    1
    11    23    24    1
    12    24    25   ar
    13    25    26   ar
    14    26    27   ar
    15    27    28   ar
    16    28    29   ar
    17    29    30    1
    18    30    31    1
    19     2     1    1
    20     2     3    1
    21     3     4    1
    22     4     5    1
    23     5     6    1
    24     6     7   ar
    25     7     8   ar
    26     8     9   ar
    27     9    10   ar
    28    10    11   ar
    29    31    22    1
    30    11     2    1
    31    29    24   ar
    32    11     6   ar
    33    18    19    1
    34    18    20    1
    35    31    32    1
@<TRIPOS>MOLECULE
*****
 32 35 0 0 0
SMALL
GASTEIGER

@<TRIPOS>ATOM
      1 N          61.6616   87.6165   11.1493 N.3     1  UNL1       -0.2679
      2 C          60.8726   87.2909    9.9158 C.3     1  UNL1        0.0978
      3 C          59.5183   87.9017    9.7089 C.3     1  UNL1        0.0224
      4 C          58.7293   87.5761    8.4754 C.3     1  UNL1        0.0065
      5 C          59.2945   86.6399    7.4488 C.3     1  UNL1        0.0277
      6 C          60.6488   86.0292    7.6557 C.ar    1  UNL1       -0.0073
      7 C          61.2142   85.0929    6.6291 C.ar    1  UNL1       -0.0015
      8 C          62.5685   84.4822    6.8361 C.ar    1  UNL1        0.0203
      9 C          63.3575   84.8077    8.0695 C.ar    1  UNL1        0.0985
     10 N          62.7922   85.7439    9.0961 N.ar    1  UNL1       -0.2471
     11 C          61.4379   86.3547    8.8892 C.ar    1  UNL1        0.0695
     12 C          62.6388   86.6201   11.6992 C.3     1  UNL1        0.0725
     13 C          62.1433   85.3475   12.3198 C.3     1  UNL1        0.0187
     14 C          63.1096   84.2496   12.6526 C.3     1  UNL1        0.0156
     15 C          62.4853   82.2249   12.7555 C.3     1  UNL1        0.0155
     16 C          62.8008   83.2900   13.7634 C.3     1  UNL1        0.0390
     17 C          63.1163   84.3552   14.7712 C.3     1  UNL1        0.0155
     18 N          62.4921   82.3304   14.8742 N.3     1  UNL1       -0.3232
     19 H          62.2198   81.4300   14.4799 H       1  UNL1        0.1188
     20 H          61.7273   82.6993   15.4394 H       1  UNL1        0.1188
     21 C          61.4735   88.9383   11.8328 C.3     1  UNL1        0.0886
     22 C          62.6170   89.9048   11.9244 C.3     1  UNL1        0.0748
     23 C          63.4187   90.0005   13.1885 C.3     1  UNL1        0.0432
     24 C          64.5622   90.9670   13.2801 C.ar    1  UNL1       -0.0234
     25 C          65.3639   91.0627   14.5442 C.ar    1  UNL1       -0.0045
     26 C          66.5074   92.0292   14.6357 C.ar    1  UNL1       -0.0003
     27 C          66.8491   92.9000   13.4632 C.ar    1  UNL1       -0.0003
     28 C          66.0474   92.8043   12.1990 C.ar    1  UNL1       -0.0032
     29 C          64.9040   91.8378   12.1075 C.ar    1  UNL1       -0.0103
     30 C          64.1022   91.7421   10.8433 C.3     1  UNL1        0.0953
     31 N          62.9587   90.7756   10.7518 N.3     1  UNL1       -0.2934
     32 H          63.1624   90.1516    9.9711 H       1  UNL1        0.1236
@<TRIPOS>BOND
     1    15    16    1
     2    16    17    1
     3    16    18    1
     4    16    14    1
     5    14    13    1
     6    13    12    1
     7    12     1    1
     8     1    21    1
     9    22    21    1
    10    22    23    1
    11    23    24    1
    12    24    25   ar
    13    25    26   ar
    14    26    27   ar
    15    27    28   ar
    16    28    29   ar
    17    29    30    1
    18    30    31    1
    19     2     1    1
    20     2     3    1
    21     3     4    1
    22     4     5    1
    23     5     6    1
    24     6     7   ar
    25     7     8   ar
    26     8     9   ar
    27     9    10   ar
    28    10    11   ar
    29    31    22    1
    30    11     2    1
    31    29    24   ar
    32    11     6   ar
    33    18    19    1
    34    18    20    1
    35    31    32    1
@<TRIPOS>MOLECULE
*****
 32 35 0 0 0
SMALL
GASTEIGER

@<TRIPOS>ATOM
      1 N          62.9745   88.4585   12.2618 N.3     1  UNL1       -0.2679
      2 C          63.5037   87.3379   13.1069 C.3     1  UNL1        0.0978
      3 C          64.2449   87.6406   14.3754 C.3     1  UNL1        0.0224
      4 C          64.7741   86.5199   15.2204 C.3     1  UNL1        0.0065
      5 C          64.5621   85.0967   14.7971 C.3     1  UNL1        0.0277
      6 C          63.8210   84.7940   13.5286 C.ar    1  UNL1       -0.0073
      7 C          63.6090   83.3706   13.1052 C.ar    1  UNL1       -0.0015
      8 C          62.8678   83.0680   11.8367 C.ar    1  UNL1        0.0203
      9 C          62.3386   84.1886   10.9916 C.ar    1  UNL1        0.0985
     10 N          62.5506   85.6119   11.4150 N.ar    1  UNL1       -0.2471
     11 C          63.2918   85.9146   12.6835 C.ar    1  UNL1        0.0695
     12 C          62.8212   88.2735   10.7812 C.3     1  UNL1        0.0725
     13 C          61.4912   88.5109   10.1294 C.3     1  UNL1        0.0187
     14 C          60.9008   87.4674    9.2281 C.3     1  UNL1        0.0156
     15 C          59.6768   86.3989    7.8643 C.3     1  UNL1        0.0155
     16 C          59.8167   87.8388    8.2602 C.3     1  UNL1        0.0390
     17 C          59.9565   89.2788    8.6562 C.3     1  UNL1        0.0155
     18 N          58.7325   88.2103    7.2923 N.3     1  UNL1       -0.3232
     19 H          58.3971   87.3713    6.8191 H       1  UNL1        0.1188
     20 H          59.1020   88.8649    6.6028 H       1  UNL1        0.1188
     21 C          62.5986   89.7641   12.8973 C.3     1  UNL1        0.0886
     22 C          63.5868   90.4895   13.7619 C.3     1  UNL1        0.0748
     23 C          64.9544   90.8068   13.2338 C.3     1  UNL1        0.0432
     24 C          65.9426   91.5321   14.0984 C.ar    1  UNL1       -0.0234
     25 C          67.3102   91.8494   13.5703 C.ar    1  UNL1       -0.0045
     26 C          68.2983   92.5747   14.4348 C.ar    1  UNL1       -0.0003
     27 C          67.9188   92.9828   15.8274 C.ar    1  UNL1       -0.0003
     28 C          66.5512   92.6656   16.3555 C.ar    1  UNL1       -0.0032
     29 C          65.5631   91.9402   15.4910 C.ar    1  UNL1       -0.0103
     30 C          64.1954   91.6229   16.0191 C.3     1  UNL1        0.0953
     31 N          63.2073   90.8976   15.1545 N.3     1  UNL1       -0.2934
     32 H          62.3894   91.5014   15.0719 H       1  UNL1        0.1236
@<TRIPOS>BOND
     1    15    16    1
     2    16    17    1
     3    16    18    1
     4    16    14    1
     5    14    13    1
     6    13    12    1
     7    12     1    1
     8     1    21    1
     9    22    21    1
    10    22    23    1
    11    23    24    1
    12    24    25   ar
    13    25    26   ar
    14    26    27   ar
    15    27    28   ar
    16    28    29   ar
    17    29    30    1
    18    30    31    1
    19     2     1    1
    20     2     3    1
    21     3     4    1
    22     4     5    1
    23     5     6    1
    24     6     7   ar
    25     7     8   ar
    26     8     9   ar
    27     9    10   ar
    28    10    11   ar
    29    31    22    1
    30    11     2    1
    31    29    24   ar
    32    11     6   ar
    33    18    19    1
    34    18    20    1
    35    31    32    1
