@<TRIPOS>MOLECULE
*****
 24 27 0 0 0
SMALL
GASTEIGER

@<TRIPOS>ATOM
      1 C          61.2245   87.0562    9.0987 C.3     1  UNL1        0.0326
      2 C          61.9913   87.3927   10.3431 C.ar    1  UNL1       -0.0037
      3 C          62.3027   88.8235   10.6684 C.ar    1  UNL1        0.0086
      4 C          63.0696   89.1600   11.9129 C.ar    1  UNL1        0.0574
      5 CL         63.3810   90.5908   12.2382 Cl      1  UNL1       -0.0823
      6 C          63.5249   88.0656   12.8322 C.ar    1  UNL1        0.0126
      7 C          63.2134   86.6348   12.5069 C.ar    1  UNL1        0.0165
      8 C          63.6688   85.5404   13.4263 C.2     1  UNL1        0.0157
      9 C          63.3573   84.1096   13.1010 C.2     1  UNL1        0.0387
     10 C          63.6733   82.8271   13.8118 C.2     1  UNL1        0.0801
     11 C          64.4282   82.6965   15.1014 C.3     1  UNL1        0.0538
     12 N          63.1017   81.6980   13.0065 N.2     1  UNL1       -0.1551
     13 N          62.4325   82.2827   11.7981 N.2     1  UNL1       -0.1469
     14 C          62.5905   83.7732   11.8565 C.3     1  UNL1        0.2503
     15 N          62.1352   84.8675   10.9372 N.2     1  UNL1       -0.2427
     16 C          62.4466   86.2983   11.2625 C.ar    1  UNL1        0.0743
     17 C          64.4356   85.8769   14.6708 C.3     1  UNL1        0.2094
     18 O          65.9218   85.6782   14.7127 O.3     1  UNL1       -0.3718
     19 H          66.2254   85.3285   13.8604 H       1  UNL1        0.2114
     20 C          63.7162   86.4122   15.8733 C.ar    1  UNL1        0.2372
     21 N          63.0228   85.5944   16.9222 N.ar    1  UNL1       -0.2080
     22 C          62.4420   86.5359   17.9352 C.ar    1  UNL1        0.1424
     23 C          62.7764   87.9356   17.5123 C.ar    1  UNL1        0.2019
     24 O          63.5639   87.8592   16.2379 O.2     1  UNL1       -0.4324
@<TRIPOS>BOND
     1     1     2    1
     2     2     3   ar
     3     3     4   ar
     4     4     5    1
     5     4     6   ar
     6     6     7   ar
     7     7     8    2
     8     8    17    1
     9    17    18    1
    10    17    20    1
    11    20    21   ar
    12    21    22   ar
    13    22    23   ar
    14    23    24   ar
    15     8     9    1
    16     9    10    2
    17    10    11    1
    18    10    12    1
    19    12    13    2
    20    13    14    1
    21    14    15    1
    22    15    16    2
    23    16     2   ar
    24    16     7   ar
    25    24    20   ar
    26    14     9    1
    27    18    19    1
@<TRIPOS>MOLECULE
*****
 24 27 0 0 0
SMALL
GASTEIGER

@<TRIPOS>ATOM
      1 C          61.0910   89.7937   10.4486 C.3     1  UNL1        0.0326
      2 C          61.3064   88.3331   10.1839 C.ar    1  UNL1       -0.0037
      3 C          60.7053   87.6948    8.9669 C.ar    1  UNL1        0.0086
      4 C          60.9206   86.2341    8.7022 C.ar    1  UNL1        0.0574
      5 CL         60.3195   85.5957    7.4852 Cl      1  UNL1       -0.0823
      6 C          61.7372   85.4118    9.6546 C.ar    1  UNL1        0.0126
      7 C          62.3384   86.0501   10.8717 C.ar    1  UNL1        0.0165
      8 C          63.1550   85.2277   11.8240 C.2     1  UNL1        0.0157
      9 C          63.7561   85.8661   13.0410 C.2     1  UNL1        0.0387
     10 C          64.6011   85.3136   14.1504 C.2     1  UNL1        0.0801
     11 C          65.0589   83.8916   14.2857 C.3     1  UNL1        0.0538
     12 N          64.9079   86.4329   15.1007 N.2     1  UNL1       -0.1551
     13 N          64.2526   87.6771   14.5786 N.2     1  UNL1       -0.1469
     14 C          63.5407   87.3268   13.3057 C.3     1  UNL1        0.2503
     15 N          62.7241   88.1491   12.3533 N.2     1  UNL1       -0.2427
     16 C          62.1230   87.5107   11.1363 C.ar    1  UNL1        0.0743
     17 C          63.3703   83.7670   11.5593 C.3     1  UNL1        0.2094
     18 O          64.2066   83.3316   10.3926 O.3     1  UNL1       -0.3718
     19 H          64.5295   84.1128    9.9169 H       1  UNL1        0.2114
     20 C          62.7495   82.7418   12.4612 C.ar    1  UNL1        0.2372
     21 N          62.7519   81.2579   12.2424 N.ar    1  UNL1       -0.2080
     22 C          62.0211   80.6195   13.3862 C.ar    1  UNL1        0.1424
     23 C          61.5671   81.7089   14.3119 C.ar    1  UNL1        0.2019
     24 O          62.0172   83.0205   13.7403 O.2     1  UNL1       -0.4324
@<TRIPOS>BOND
     1     1     2    1
     2     2     3   ar
     3     3     4   ar
     4     4     5    1
     5     4     6   ar
     6     6     7   ar
     7     7     8    2
     8     8    17    1
     9    17    18    1
    10    17    20    1
    11    20    21   ar
    12    21    22   ar
    13    22    23   ar
    14    23    24   ar
    15     8     9    1
    16     9    10    2
    17    10    11    1
    18    10    12    1
    19    12    13    2
    20    13    14    1
    21    14    15    1
    22    15    16    2
    23    16     2   ar
    24    16     7   ar
    25    24    20   ar
    26    14     9    1
    27    18    19    1
@<TRIPOS>MOLECULE
*****
 24 27 0 0 0
SMALL
GASTEIGER

@<TRIPOS>ATOM
      1 C          61.9269   89.7093    9.8430 C.3     1  UNL1        0.0326
      2 C          62.6353   89.4839   11.1457 C.ar    1  UNL1       -0.0037
      3 C          63.1530   90.6529   11.9301 C.ar    1  UNL1        0.0086
      4 C          63.8614   90.4275   13.2330 C.ar    1  UNL1        0.0574
      5 CL         64.3791   91.5966   14.0173 Cl      1  UNL1       -0.0823
      6 C          64.0522   89.0330   13.7514 C.ar    1  UNL1        0.0126
      7 C          63.5345   87.8638   12.9669 C.ar    1  UNL1        0.0165
      8 C          63.7254   86.4692   13.4854 C.2     1  UNL1        0.0157
      9 C          63.2077   85.3001   12.7010 C.2     1  UNL1        0.0387
     10 C          63.2472   83.8228   12.9576 C.2     1  UNL1        0.0801
     11 C          63.8626   83.1509   14.1492 C.3     1  UNL1        0.0538
     12 N          62.5631   83.1352   11.8133 N.2     1  UNL1       -0.1551
     13 N          62.1009   84.1876   10.8496 N.2     1  UNL1       -0.1469
     14 C          62.4993   85.5256   11.3982 C.3     1  UNL1        0.2503
     15 N          62.3085   86.9202   10.8798 N.2     1  UNL1       -0.2427
     16 C          62.8261   88.0893   11.6642 C.ar    1  UNL1        0.0743
     17 C          64.4338   86.2438   14.7882 C.3     1  UNL1        0.2094
     18 O          65.8235   85.6794   14.7983 O.3     1  UNL1       -0.3718
     19 H          66.1135   85.5177   13.8869 H       1  UNL1        0.2114
     20 C          63.7526   86.5828   16.0809 C.ar    1  UNL1        0.2372
     21 N          63.3619   85.6095   17.1533 N.ar    1  UNL1       -0.2080
     22 C          62.7102   86.3797   18.2633 C.ar    1  UNL1        0.1424
     23 C          62.6981   87.8290   17.8768 C.ar    1  UNL1        0.2019
     24 O          63.3423   87.9545   16.5280 O.2     1  UNL1       -0.4324
@<TRIPOS>BOND
     1     1     2    1
     2     2     3   ar
     3     3     4   ar
     4     4     5    1
     5     4     6   ar
     6     6     7   ar
     7     7     8    2
     8     8    17    1
     9    17    18    1
    10    17    20    1
    11    20    21   ar
    12    21    22   ar
    13    22    23   ar
    14    23    24   ar
    15     8     9    1
    16     9    10    2
    17    10    11    1
    18    10    12    1
    19    12    13    2
    20    13    14    1
    21    14    15    1
    22    15    16    2
    23    16     2   ar
    24    16     7   ar
    25    24    20   ar
    26    14     9    1
    27    18    19    1
@<TRIPOS>MOLECULE
*****
 24 27 0 0 0
SMALL
GASTEIGER

@<TRIPOS>ATOM
      1 C          66.6224   94.0421   11.1823 C.3     1  UNL1        0.0326
      2 C          66.1849   93.1361   12.2948 C.ar    1  UNL1       -0.0037
      3 C          66.8651   93.2052   13.6298 C.ar    1  UNL1        0.0086
      4 C          66.4276   92.2992   14.7424 C.ar    1  UNL1        0.0574
      5 CL         67.1078   92.3683   16.0775 Cl      1  UNL1       -0.0823
      6 C          65.3098   91.3241   14.5198 C.ar    1  UNL1        0.0126
      7 C          64.6295   91.2549   13.1847 C.ar    1  UNL1        0.0165
      8 C          63.5116   90.2797   12.9621 C.2     1  UNL1        0.0157
      9 C          62.8314   90.2106   11.6270 C.2     1  UNL1        0.0387
     10 C          61.7089   89.3572   11.1155 C.2     1  UNL1        0.0801
     11 C          60.9720   88.3092   11.8957 C.3     1  UNL1        0.0538
     12 N          61.4527   89.7358    9.6869 N.2     1  UNL1       -0.1551
     13 N          62.4169   90.8232    9.3154 N.2     1  UNL1       -0.1469
     14 C          63.2690   91.1166   10.5145 C.3     1  UNL1        0.2503
     15 N          64.3868   92.0918   10.7371 N.2     1  UNL1       -0.2427
     16 C          65.0670   92.1609   12.0722 C.ar    1  UNL1        0.0743
     17 C          63.0741   89.3737   14.0747 C.3     1  UNL1        0.2094
     18 O          62.1276   89.8773   15.1237 O.3     1  UNL1       -0.3718
     19 H          61.8984   90.8009   14.9358 H       1  UNL1        0.2114
     20 C          63.5832   87.9642   14.1382 C.ar    1  UNL1        0.2372
     21 N          64.2813   87.3307   15.3049 N.ar    1  UNL1       -0.2080
     22 C          64.6130   85.9156   14.9340 C.ar    1  UNL1        0.1424
     23 C          64.1200   85.6746   13.5380 C.ar    1  UNL1        0.2019
     24 O          63.4835   86.9407   13.0462 O.2     1  UNL1       -0.4324
@<TRIPOS>BOND
     1     1     2    1
     2     2     3   ar
     3     3     4   ar
     4     4     5    1
     5     4     6   ar
     6     6     7   ar
     7     7     8    2
     8     8    17    1
     9    17    18    1
    10    17    20    1
    11    20    21   ar
    12    21    22   ar
    13    22    23   ar
    14    23    24   ar
    15     8     9    1
    16     9    10    2
    17    10    11    1
    18    10    12    1
    19    12    13    2
    20    13    14    1
    21    14    15    1
    22    15    16    2
    23    16     2   ar
    24    16     7   ar
    25    24    20   ar
    26    14     9    1
    27    18    19    1
@<TRIPOS>MOLECULE
*****
 24 27 0 0 0
SMALL
GASTEIGER

@<TRIPOS>ATOM
      1 C          60.7257   85.0013    7.3838 C.3     1  UNL1        0.0326
      2 C          60.6874   86.3567    8.0249 C.ar    1  UNL1       -0.0037
      3 C          59.9659   87.4855    7.3502 C.ar    1  UNL1        0.0086
      4 C          59.9275   88.8411    7.9913 C.ar    1  UNL1        0.0574
      5 CL         59.2060   89.9698    7.3165 Cl      1  UNL1       -0.0823
      6 C          60.6108   89.0678    9.3072 C.ar    1  UNL1        0.0126
      7 C          61.3324   87.9390    9.9820 C.ar    1  UNL1        0.0165
      8 C          62.0157   88.1659   11.2980 C.2     1  UNL1        0.0157
      9 C          62.7372   87.0372   11.9728 C.2     1  UNL1        0.0387
     10 C          63.4967   86.9608   13.2640 C.2     1  UNL1        0.0801
     11 C          63.7109   88.0891   14.2290 C.3     1  UNL1        0.0538
     12 N          64.0044   85.5581   13.4209 N.2     1  UNL1       -0.1551
     13 N          63.5586   84.7675   12.2266 N.2     1  UNL1       -0.1469
     14 C          62.7754   85.6816   11.3316 C.3     1  UNL1        0.2503
     15 N          62.0922   85.4549   10.0157 N.2     1  UNL1       -0.2427
     16 C          61.3707   86.5836    9.3409 C.ar    1  UNL1        0.0743
     17 C          61.9773   89.5215   11.9392 C.3     1  UNL1        0.2094
     18 O          60.8481   89.8853   12.8570 O.3     1  UNL1       -0.3718
     19 H          60.2342   89.1375   12.9266 H       1  UNL1        0.2114
     20 C          63.0682   90.5131   11.6624 C.ar    1  UNL1        0.2372
     21 N          64.0185   91.0834   12.6732 N.ar    1  UNL1       -0.2080
     22 C          64.9379   92.0313   11.9618 C.ar    1  UNL1        0.1424
     23 C          64.5559   92.0468   10.5114 C.ar    1  UNL1        0.2019
     24 O          63.4003   91.1086   10.3263 O.2     1  UNL1       -0.4324
@<TRIPOS>BOND
     1     1     2    1
     2     2     3   ar
     3     3     4   ar
     4     4     5    1
     5     4     6   ar
     6     6     7   ar
     7     7     8    2
     8     8    17    1
     9    17    18    1
    10    17    20    1
    11    20    21   ar
    12    21    22   ar
    13    22    23   ar
    14    23    24   ar
    15     8     9    1
    16     9    10    2
    17    10    11    1
    18    10    12    1
    19    12    13    2
    20    13    14    1
    21    14    15    1
    22    15    16    2
    23    16     2   ar
    24    16     7   ar
    25    24    20   ar
    26    14     9    1
    27    18    19    1
@<TRIPOS>MOLECULE
*****
 24 27 0 0 0
SMALL
GASTEIGER

@<TRIPOS>ATOM
      1 C          61.6892   85.2233    6.8509 C.3     1  UNL1        0.0326
      2 C          61.5553   85.8142    8.2230 C.ar    1  UNL1       -0.0037
      3 C          60.7109   87.0359    8.4343 C.ar    1  UNL1        0.0086
      4 C          60.5769   87.6269    9.8065 C.ar    1  UNL1        0.0574
      5 CL         59.7326   88.8486   10.0178 Cl      1  UNL1       -0.0823
      6 C          61.2873   86.9962   10.9673 C.ar    1  UNL1        0.0126
      7 C          62.1317   85.7745   10.7560 C.ar    1  UNL1        0.0165
      8 C          62.8421   85.1439   11.9170 C.2     1  UNL1        0.0157
      9 C          63.6864   83.9222   11.7056 C.2     1  UNL1        0.0387
     10 C          64.4987   83.0878   12.6511 C.2     1  UNL1        0.0801
     11 C          64.6487   83.3194   14.1255 C.3     1  UNL1        0.0538
     12 N          65.1347   81.9811   11.8632 N.2     1  UNL1       -0.1551
     13 N          64.7155   82.1315   10.4309 N.2     1  UNL1       -0.1469
     14 C          63.8204   83.3313   10.3335 C.3     1  UNL1        0.2503
     15 N          63.1100   83.9619    9.1726 N.2     1  UNL1       -0.2427
     16 C          62.2657   85.1836    9.3840 C.ar    1  UNL1        0.0743
     17 C          62.7081   85.7349   13.2891 C.3     1  UNL1        0.2094
     18 O          61.9406   85.0024   14.3495 O.3     1  UNL1       -0.3718
     19 H          61.5994   84.1707   13.9853 H       1  UNL1        0.2114
     20 C          63.3416   87.0583   13.6008 C.ar    1  UNL1        0.2372
     21 N          64.1594   87.3798   14.8164 N.ar    1  UNL1       -0.2080
     22 C          64.5918   88.8128   14.7186 C.ar    1  UNL1        0.1424
     23 C          64.0411   89.3769   13.4425 C.ar    1  UNL1        0.2019
     24 O          63.2685   88.2927   12.7516 O.2     1  UNL1       -0.4324
@<TRIPOS>BOND
     1     1     2    1
     2     2     3   ar
     3     3     4   ar
     4     4     5    1
     5     4     6   ar
     6     6     7   ar
     7     7     8    2
     8     8    17    1
     9    17    18    1
    10    17    20    1
    11    20    21   ar
    12    21    22   ar
    13    22    23   ar
    14    23    24   ar
    15     8     9    1
    16     9    10    2
    17    10    11    1
    18    10    12    1
    19    12    13    2
    20    13    14    1
    21    14    15    1
    22    15    16    2
    23    16     2   ar
    24    16     7   ar
    25    24    20   ar
    26    14     9    1
    27    18    19    1
@<TRIPOS>MOLECULE
*****
 24 27 0 0 0
SMALL
GASTEIGER

@<TRIPOS>ATOM
      1 C          61.1969   86.3710    8.9017 C.3     1  UNL1        0.0326
      2 C          61.8632   85.9114   10.1644 C.ar    1  UNL1       -0.0037
      3 C          61.9412   84.4473   10.4812 C.ar    1  UNL1        0.0086
      4 C          62.6076   83.9875   11.7441 C.ar    1  UNL1        0.0574
      5 CL         62.6856   82.5235   12.0608 Cl      1  UNL1       -0.0823
      6 C          63.1959   84.9920   12.6901 C.ar    1  UNL1        0.0126
      7 C          63.1179   86.4561   12.3733 C.ar    1  UNL1        0.0165
      8 C          63.7062   87.4605   13.3194 C.2     1  UNL1        0.0157
      9 C          63.6282   88.9246   13.0027 C.2     1  UNL1        0.0387
     10 C          64.1143   90.1380   13.7385 C.2     1  UNL1        0.0801
     11 C          64.8391   90.1412   15.0518 C.3     1  UNL1        0.0538
     12 N          63.7484   91.3476   12.9304 N.2     1  UNL1       -0.1551
     13 N          63.0362   90.8818   11.6952 N.2     1  UNL1       -0.1469
     14 C          62.9619   89.3843   11.7398 C.3     1  UNL1        0.2503
     15 N          62.3735   88.3799   10.7938 N.2     1  UNL1       -0.2427
     16 C          62.4516   86.9158   11.1106 C.ar    1  UNL1        0.0743
     17 C          64.3725   87.0008   14.5823 C.3     1  UNL1        0.2094
     18 O          65.8260   86.6302   14.5712 O.3     1  UNL1       -0.3718
     19 H          66.1818   86.7435   13.6760 H       1  UNL1        0.2114
     20 C          63.5854   86.9117   15.8560 C.ar    1  UNL1        0.2372
     21 N          63.0203   85.6591   16.4573 N.ar    1  UNL1       -0.2080
     22 C          62.3108   86.0327   17.7251 C.ar    1  UNL1        0.1424
     23 C          62.4375   87.5162   17.9072 C.ar    1  UNL1        0.2019
     24 O          63.2253   88.0594   16.7521 O.2     1  UNL1       -0.4324
@<TRIPOS>BOND
     1     1     2    1
     2     2     3   ar
     3     3     4   ar
     4     4     5    1
     5     4     6   ar
     6     6     7   ar
     7     7     8    2
     8     8    17    1
     9    17    18    1
    10    17    20    1
    11    20    21   ar
    12    21    22   ar
    13    22    23   ar
    14    23    24   ar
    15     8     9    1
    16     9    10    2
    17    10    11    1
    18    10    12    1
    19    12    13    2
    20    13    14    1
    21    14    15    1
    22    15    16    2
    23    16     2   ar
    24    16     7   ar
    25    24    20   ar
    26    14     9    1
    27    18    19    1
@<TRIPOS>MOLECULE
*****
 24 27 0 0 0
SMALL
GASTEIGER

@<TRIPOS>ATOM
      1 C          61.9875   90.3794    9.9130 C.3     1  UNL1        0.0326
      2 C          61.7733   88.9035   10.0723 C.ar    1  UNL1       -0.0037
      3 C          60.9585   88.1505    9.0627 C.ar    1  UNL1        0.0086
      4 C          60.7443   86.6744    9.2220 C.ar    1  UNL1        0.0574
      5 CL         59.9295   85.9215    8.2125 Cl      1  UNL1       -0.0823
      6 C          61.3449   85.9513   10.3909 C.ar    1  UNL1        0.0126
      7 C          62.1597   86.7043   11.4006 C.ar    1  UNL1        0.0165
      8 C          62.7603   85.9811   12.5695 C.2     1  UNL1        0.0157
      9 C          63.5751   86.7340   13.5791 C.2     1  UNL1        0.0387
     10 C          64.2860   86.2942   14.8245 C.2     1  UNL1        0.0801
     11 C          64.3348   84.8957   15.3647 C.3     1  UNL1        0.0538
     12 N          64.9396   87.4984   15.4348 N.2     1  UNL1       -0.1551
     13 N          64.6326   88.6825   14.5666 N.2     1  UNL1       -0.1469
     14 C          63.7893   88.2100   13.4197 C.3     1  UNL1        0.2503
     15 N          63.1887   88.9332   12.2508 N.2     1  UNL1       -0.2427
     16 C          62.3739   88.1802   11.2412 C.ar    1  UNL1        0.0743
     17 C          62.5460   84.5050   12.7288 C.3     1  UNL1        0.2094
     18 O          61.7435   83.9840   13.8840 O.3     1  UNL1       -0.3718
     19 H          61.4388   84.7275   14.4274 H       1  UNL1        0.2114
     20 C          63.1343   83.5500   11.7329 C.ar    1  UNL1        0.2372
     21 N          62.7976   82.0941   11.6022 N.ar    1  UNL1       -0.2080
     22 C          63.6178   81.5275   10.4814 C.ar    1  UNL1        0.1424
     23 C          64.4614   82.6331    9.9195 C.ar    1  UNL1        0.2019
     24 O          64.1627   83.8831   10.6929 O.2     1  UNL1       -0.4324
@<TRIPOS>BOND
     1     1     2    1
     2     2     3   ar
     3     3     4   ar
     4     4     5    1
     5     4     6   ar
     6     6     7   ar
     7     7     8    2
     8     8    17    1
     9    17    18    1
    10    17    20    1
    11    20    21   ar
    12    21    22   ar
    13    22    23   ar
    14    23    24   ar
    15     8     9    1
    16     9    10    2
    17    10    11    1
    18    10    12    1
    19    12    13    2
    20    13    14    1
    21    14    15    1
    22    15    16    2
    23    16     2   ar
    24    16     7   ar
    25    24    20   ar
    26    14     9    1
    27    18    19    1
@<TRIPOS>MOLECULE
*****
 24 27 0 0 0
SMALL
GASTEIGER

@<TRIPOS>ATOM
      1 C          62.7428   91.1484    8.9815 C.3     1  UNL1        0.0326
      2 C          62.4448   90.7475   10.3958 C.ar    1  UNL1       -0.0037
      3 C          61.1885   89.9916   10.7122 C.ar    1  UNL1        0.0086
      4 C          60.8904   89.5906   12.1266 C.ar    1  UNL1        0.0574
      5 CL         59.6340   88.8347   12.4430 Cl      1  UNL1       -0.0823
      6 C          61.8488   89.9455   13.2246 C.ar    1  UNL1        0.0126
      7 C          63.1052   90.7014   12.9081 C.ar    1  UNL1        0.0165
      8 C          64.0636   91.0564   14.0062 C.2     1  UNL1        0.0157
      9 C          65.3200   91.8123   13.6898 C.2     1  UNL1        0.0387
     10 C          66.4440   92.2983   14.5560 C.2     1  UNL1        0.0801
     11 C          66.5557   92.1151   16.0406 C.3     1  UNL1        0.0538
     12 N          67.4366   92.9996   13.6770 N.2     1  UNL1       -0.1551
     13 N          66.9262   92.9471   12.2675 N.2     1  UNL1       -0.1469
     14 C          65.6180   92.2132   12.2754 C.3     1  UNL1        0.2503
     15 N          64.6596   91.8583   11.1774 N.2     1  UNL1       -0.2427
     16 C          63.4032   91.1024   11.4939 C.ar    1  UNL1        0.0743
     17 C          63.7655   90.6554   15.4206 C.3     1  UNL1        0.2094
     18 O          63.5661   91.7065   16.4719 O.3     1  UNL1       -0.3718
     19 H          63.6627   92.5853   16.0729 H       1  UNL1        0.2114
     20 C          63.6669   89.2033   15.7835 C.ar    1  UNL1        0.2372
     21 N          64.2323   88.0577   14.9974 N.ar    1  UNL1       -0.2080
     22 C          63.9005   86.7882   15.7243 C.ar    1  UNL1        0.1424
     23 C          63.1301   87.1493   16.9596 C.ar    1  UNL1        0.2019
     24 O          62.9857   88.6419   16.9962 O.2     1  UNL1       -0.4324
@<TRIPOS>BOND
     1     1     2    1
     2     2     3   ar
     3     3     4   ar
     4     4     5    1
     5     4     6   ar
     6     6     7   ar
     7     7     8    2
     8     8    17    1
     9    17    18    1
    10    17    20    1
    11    20    21   ar
    12    21    22   ar
    13    22    23   ar
    14    23    24   ar
    15     8     9    1
    16     9    10    2
    17    10    11    1
    18    10    12    1
    19    12    13    2
    20    13    14    1
    21    14    15    1
    22    15    16    2
    23    16     2   ar
    24    16     7   ar
    25    24    20   ar
    26    14     9    1
    27    18    19    1
