@<TRIPOS>MOLECULE
*****
 34 38 0 0 0
SMALL
GASTEIGER

@<TRIPOS>ATOM
      1 C          63.3952   88.1680   13.1505 C.3     1  UNL1        0.1095
      2 C          64.2265   87.7671   14.3330 C.3     1  UNL1        0.1597
      3 O          64.4974   86.3165   14.6023 O.3     1  UNL1       -0.3533
      4 C          63.9370   85.2668   13.6890 C.3     1  UNL1        0.1315
      5 C          64.0350   83.7701   13.7008 C.3     1  UNL1        0.0311
      6 C          63.2642   83.2459   12.5256 C.3     1  UNL1        0.0041
      7 C          62.6899   84.4187   11.7874 C.3     1  UNL1        0.0203
      8 C          63.1057   85.6677   12.5065 C.3     1  UNL1        0.1066
      9 N          62.8349   87.1183   12.2373 N.3     1  UNL1       -0.1534
     10 C          63.1243   89.6186   12.8812 C.3     1  UNL1        0.0261
     11 C          62.3709   90.9055   12.7204 C.3     1  UNL1        0.0020
     12 C          61.6407   89.6515   13.1001 C.3     1  UNL1        0.0020
     13 C          64.5138   90.0894   12.5689 C.3     1  UNL1        0.0867
     14 O          65.1345   91.3931   14.7288 O.2     1  UNL1       -0.2749
     15 C          65.0554   91.3207   13.2327 C.2     1  UNL1        0.2257
     16 N          65.5180   92.4796   12.4002 N.am    1  UNL1       -0.2795
     17 C          66.0596   93.7109   13.0640 C.3     1  UNL1        0.0935
     18 C          66.5222   94.8699   12.2316 C.3     1  UNL1        0.0240
     19 C          66.4432   94.7975   10.7354 C.3     1  UNL1        0.0327
     20 C          65.9016   93.5662   10.0716 C.3     1  UNL1        0.0240
     21 C          65.4390   92.4072   10.9041 C.3     1  UNL1        0.0935
     22 C          66.9057   95.9564    9.9031 C.3     1  UNL1        0.1372
     23 O          67.9343   95.7471    8.8316 O.3     1  UNL1       -0.3820
     24 H          68.7775   95.4925    9.2381 H       1  UNL1        0.2104
     25 S          62.0036   87.5191   11.0547 S.O2    1  UNL1        0.0634
     26 O          60.7750   87.0034   11.7436 O.2     1  UNL1       -0.1528
     27 O          62.8954   88.0568   10.1957 O.2     1  UNL1       -0.1528
     28 C          61.1722   87.9200    9.8723 C.ar    1  UNL1        0.1223
     29 C          60.5118   86.8697    9.0292 C.ar    1  UNL1        0.0208
     30 C          59.6805   87.2704    7.8467 C.ar    1  UNL1        0.0128
     31 C          59.5095   88.7215    7.5074 C.ar    1  UNL1        0.0578
     32 CL         58.6782   89.1222    6.3249 Cl      1  UNL1       -0.0822
     33 C          60.1699   89.7718    8.3505 C.ar    1  UNL1        0.0128
     34 C          61.0013   89.3710    9.5329 C.ar    1  UNL1        0.0208
@<TRIPOS>BOND
     1    14    15    2
     2    15    13    1
     3    13    10    1
     4     1    10    1
     5     1     2    1
     6     2     3    1
     7     3     4    1
     8     4     5    1
     9     5     6    1
    10     6     7    1
    11     8     7    1
    12     8     9    1
    13     9    25    1
    14    25    26    2
    15    25    27    2
    16    25    28    1
    17    28    29   ar
    18    29    30   ar
    19    30    31   ar
    20    31    32    1
    21    31    33   ar
    22    33    34   ar
    23    10    11    1
    24    11    12    1
    25    15    16   am
    26    16    17    1
    27    17    18    1
    28    18    19    1
    29    19    22    1
    30    22    23    1
    31    19    20    1
    32    20    21    1
    33    12    10    1
    34    21    16    1
    35     9     1    1
    36    34    28   ar
    37     8     4    1
    38    23    24    1
@<TRIPOS>MOLECULE
*****
 34 38 0 0 0
SMALL
GASTEIGER

@<TRIPOS>ATOM
      1 C          61.1982   89.3781   10.8749 C.3     1  UNL1        0.1095
      2 C          60.4966   90.5312   10.2207 C.3     1  UNL1        0.1597
      3 O          59.7135   90.3149    8.9597 O.3     1  UNL1       -0.3533
      4 C          59.6321   88.9455    8.3530 C.3     1  UNL1        0.1315
      5 C          58.9407   88.4312    7.1252 C.3     1  UNL1        0.0311
      6 C          59.2150   86.9602    7.0207 C.3     1  UNL1        0.0041
      7 C          60.0759   86.5654    8.1839 C.3     1  UNL1        0.0203
      8 C          60.3338   87.7924    9.0073 C.3     1  UNL1        0.1066
      9 N          61.1168   88.0087   10.2682 N.3     1  UNL1       -0.1534
     10 C          61.9812   89.5943   12.1360 C.3     1  UNL1        0.0261
     11 C          62.2859   89.7563   13.5957 C.3     1  UNL1        0.0020
     12 C          60.8756   89.5131   13.1464 C.3     1  UNL1        0.0020
     13 C          63.3589   89.7507   11.5635 C.3     1  UNL1        0.0867
     14 O          63.5438   91.9041   10.1217 O.2     1  UNL1       -0.2749
     15 C          63.9279   91.1208   11.3419 C.2     1  UNL1        0.2257
     16 N          64.8811   91.7075   12.3405 N.am    1  UNL1       -0.2795
     17 C          65.4501   93.0776   12.1189 C.3     1  UNL1        0.0935
     18 C          66.4033   93.6644   13.1176 C.3     1  UNL1        0.0240
     19 C          66.7874   92.8810   14.3377 C.3     1  UNL1        0.0327
     20 C          66.2184   91.5109   14.5593 C.3     1  UNL1        0.0240
     21 C          65.2652   90.9242   13.5607 C.3     1  UNL1        0.0935
     22 C          67.7405   93.4678   15.3363 C.3     1  UNL1        0.1372
     23 O          69.2199   93.3167   15.1397 O.3     1  UNL1       -0.3820
     24 H          69.4621   92.3804   15.2150 H       1  UNL1        0.2104
     25 S          61.8184   86.8556   10.9225 S.O2    1  UNL1        0.0634
     26 O          62.9210   86.9520    9.9100 O.2     1  UNL1       -0.1528
     27 O          61.0085   86.5203   11.9491 O.2     1  UNL1       -0.1528
     28 C          62.5201   85.7025   11.5767 C.ar    1  UNL1        0.1223
     29 C          63.1906   85.8888   12.9056 C.ar    1  UNL1        0.0208
     30 C          63.8923   84.7358   13.5599 C.ar    1  UNL1        0.0128
     31 C          63.9235   83.3964   12.8853 C.ar    1  UNL1        0.0578
     32 CL         64.6253   82.2434   13.5395 Cl      1  UNL1       -0.0822
     33 C          63.2531   83.2101   11.5564 C.ar    1  UNL1        0.0128
     34 C          62.5514   84.3631   10.9021 C.ar    1  UNL1        0.0208
@<TRIPOS>BOND
     1    14    15    2
     2    15    13    1
     3    13    10    1
     4     1    10    1
     5     1     2    1
     6     2     3    1
     7     3     4    1
     8     4     5    1
     9     5     6    1
    10     6     7    1
    11     8     7    1
    12     8     9    1
    13     9    25    1
    14    25    26    2
    15    25    27    2
    16    25    28    1
    17    28    29   ar
    18    29    30   ar
    19    30    31   ar
    20    31    32    1
    21    31    33   ar
    22    33    34   ar
    23    10    11    1
    24    11    12    1
    25    15    16   am
    26    16    17    1
    27    17    18    1
    28    18    19    1
    29    19    22    1
    30    22    23    1
    31    19    20    1
    32    20    21    1
    33    12    10    1
    34    21    16    1
    35     9     1    1
    36    34    28   ar
    37     8     4    1
    38    23    24    1
@<TRIPOS>MOLECULE
*****
 34 38 0 0 0
SMALL
GASTEIGER

@<TRIPOS>ATOM
      1 C          63.2446   88.1178   12.9300 C.3     1  UNL1        0.1095
      2 C          64.0821   87.6991   14.1017 C.3     1  UNL1        0.1597
      3 O          64.3609   86.2451   14.3430 O.3     1  UNL1       -0.3533
      4 C          63.8020   85.2098   13.4125 C.3     1  UNL1        0.1315
      5 C          63.9070   83.7136   13.3962 C.3     1  UNL1        0.0311
      6 C          63.1343   83.2077   12.2142 C.3     1  UNL1        0.0041
      7 C          62.5518   84.3912   11.5001 C.3     1  UNL1        0.0203
      8 C          62.9644   85.6286   12.2407 C.3     1  UNL1        0.1066
      9 N          62.6857   87.0826   11.9994 N.3     1  UNL1       -0.1534
     10 C          62.9658   89.5719   12.6887 C.3     1  UNL1        0.0261
     11 C          62.2706   90.9002   12.7339 C.3     1  UNL1        0.0020
     12 C          61.6697   89.7151   13.4299 C.3     1  UNL1        0.0020
     13 C          64.1652   89.9335   11.8636 C.3     1  UNL1        0.0867
     14 O          64.1707   92.1929   10.5808 O.2     1  UNL1       -0.2749
     15 C          64.5980   91.3658   11.7570 C.2     1  UNL1        0.2257
     16 N          65.4580   91.9710   12.8267 N.am    1  UNL1       -0.2795
     17 C          65.8908   93.4032   12.7201 C.3     1  UNL1        0.0935
     18 C          66.7509   94.0084   13.7897 C.3     1  UNL1        0.0240
     19 C          67.1781   93.1813   14.9659 C.3     1  UNL1        0.0327
     20 C          66.7453   91.7491   15.0725 C.3     1  UNL1        0.0240
     21 C          65.8853   91.1439   14.0029 C.3     1  UNL1        0.0935
     22 C          68.0381   93.7866   16.0355 C.3     1  UNL1        0.1372
     23 O          69.5230   93.8756   15.8430 O.3     1  UNL1       -0.3820
     24 H          69.8999   92.9821   15.8180 H       1  UNL1        0.2104
     25 S          61.8481   87.5014   10.8277 S.O2    1  UNL1        0.0634
     26 O          60.6038   87.2348   11.6218 O.2     1  UNL1       -0.1528
     27 O          62.7523   87.8253    9.8790 O.2     1  UNL1       -0.1528
     28 C          61.0104   87.9201    9.6559 C.ar    1  UNL1        0.1223
     29 C          60.8485   89.3757    9.3318 C.ar    1  UNL1        0.0208
     30 C          60.0109   89.7945    8.1601 C.ar    1  UNL1        0.0128
     31 C          59.3352   88.7577    7.3125 C.ar    1  UNL1        0.0578
     32 CL         58.4976   89.1766    6.1408 Cl      1  UNL1       -0.0822
     33 C          59.4971   87.3021    7.6366 C.ar    1  UNL1        0.0128
     34 C          60.3348   86.8833    8.8083 C.ar    1  UNL1        0.0208
@<TRIPOS>BOND
     1    14    15    2
     2    15    13    1
     3    13    10    1
     4     1    10    1
     5     1     2    1
     6     2     3    1
     7     3     4    1
     8     4     5    1
     9     5     6    1
    10     6     7    1
    11     8     7    1
    12     8     9    1
    13     9    25    1
    14    25    26    2
    15    25    27    2
    16    25    28    1
    17    28    29   ar
    18    29    30   ar
    19    30    31   ar
    20    31    32    1
    21    31    33   ar
    22    33    34   ar
    23    10    11    1
    24    11    12    1
    25    15    16   am
    26    16    17    1
    27    17    18    1
    28    18    19    1
    29    19    22    1
    30    22    23    1
    31    19    20    1
    32    20    21    1
    33    12    10    1
    34    21    16    1
    35     9     1    1
    36    34    28   ar
    37     8     4    1
    38    23    24    1
@<TRIPOS>MOLECULE
*****
 34 38 0 0 0
SMALL
GASTEIGER

@<TRIPOS>ATOM
      1 C          61.8994   88.7494   11.0601 C.3     1  UNL1        0.1095
      2 C          61.4183   90.0395   10.4652 C.3     1  UNL1        0.1597
      3 O          60.5130   90.0223    9.2691 O.3     1  UNL1       -0.3533
      4 C          60.0890   88.7150    8.6682 C.3     1  UNL1        0.1315
      5 C          59.2105   88.3865    7.4977 C.3     1  UNL1        0.0311
      6 C          59.1487   86.8932    7.3693 C.3     1  UNL1        0.0041
      7 C          59.9890   86.2990    8.4605 C.3     1  UNL1        0.0203
      8 C          60.5702   87.4249    9.2633 C.3     1  UNL1        0.1066
      9 N          61.4754   87.4421   10.4592 N.3     1  UNL1       -0.1534
     10 C          62.8046   88.7665   12.2561 C.3     1  UNL1        0.0261
     11 C          63.8447   88.3260   13.2430 C.3     1  UNL1        0.0020
     12 C          63.5076   87.4547   12.0696 C.3     1  UNL1        0.0020
     13 C          62.4160   90.0844   12.8581 C.3     1  UNL1        0.0867
     14 O          63.5376   90.9994   15.0156 O.2     1  UNL1       -0.2749
     15 C          63.4539   90.9422   13.5190 C.2     1  UNL1        0.2257
     16 N          64.4080   91.7430   12.6833 N.am    1  UNL1       -0.2795
     17 C          65.4459   92.6009   13.3443 C.3     1  UNL1        0.0935
     18 C          66.4001   93.4017   12.5086 C.3     1  UNL1        0.0240
     19 C          66.3164   93.3446   11.0120 C.3     1  UNL1        0.0327
     20 C          65.2785   92.4867   10.3511 C.3     1  UNL1        0.0240
     21 C          64.3243   91.6859   11.1868 C.3     1  UNL1        0.0935
     22 C          67.2706   94.1454   10.1765 C.3     1  UNL1        0.1372
     23 O          68.5834   93.5514    9.7600 O.3     1  UNL1       -0.3820
     24 H          69.1361   93.4068   10.5439 H       1  UNL1        0.2104
     25 S          61.9566   86.1520   11.0542 S.O2    1  UNL1        0.0634
     26 O          62.8665   85.9493    9.8791 O.2     1  UNL1       -0.1528
     27 O          61.2668   86.0480   12.2100 O.2     1  UNL1       -0.1528
     28 C          62.4378   84.8618   11.6492 C.ar    1  UNL1        0.1223
     29 C          63.0492   83.8121   10.7692 C.ar    1  UNL1        0.0208
     30 C          63.5304   82.5219   11.3641 C.ar    1  UNL1        0.0128
     31 C          63.4003   82.2816   12.8389 C.ar    1  UNL1        0.0578
     32 CL         63.8816   80.9914   13.4338 Cl      1  UNL1       -0.0822
     33 C          62.7890   83.3312   13.7189 C.ar    1  UNL1        0.0128
     34 C          62.3077   84.6214   13.1241 C.ar    1  UNL1        0.0208
@<TRIPOS>BOND
     1    14    15    2
     2    15    13    1
     3    13    10    1
     4     1    10    1
     5     1     2    1
     6     2     3    1
     7     3     4    1
     8     4     5    1
     9     5     6    1
    10     6     7    1
    11     8     7    1
    12     8     9    1
    13     9    25    1
    14    25    26    2
    15    25    27    2
    16    25    28    1
    17    28    29   ar
    18    29    30   ar
    19    30    31   ar
    20    31    32    1
    21    31    33   ar
    22    33    34   ar
    23    10    11    1
    24    11    12    1
    25    15    16   am
    26    16    17    1
    27    17    18    1
    28    18    19    1
    29    19    22    1
    30    22    23    1
    31    19    20    1
    32    20    21    1
    33    12    10    1
    34    21    16    1
    35     9     1    1
    36    34    28   ar
    37     8     4    1
    38    23    24    1
@<TRIPOS>MOLECULE
*****
 34 38 0 0 0
SMALL
GASTEIGER

@<TRIPOS>ATOM
      1 C          62.3412   86.7033   10.9559 C.3     1  UNL1        0.1095
      2 C          62.3702   86.4422    9.4791 C.3     1  UNL1        0.1597
      3 O          62.9715   85.1724    8.9536 O.3     1  UNL1       -0.3533
      4 C          63.5439   84.1638    9.9049 C.3     1  UNL1        0.1315
      5 C          64.1973   82.8320    9.6824 C.3     1  UNL1        0.0311
      6 C          64.5721   82.2701   11.0217 C.3     1  UNL1        0.0041
      7 C          64.1504   83.2545   12.0719 C.3     1  UNL1        0.0203
      8 C          63.5149   84.4249   11.3818 C.3     1  UNL1        0.1066
      9 N          62.9136   85.6947   11.9072 N.3     1  UNL1       -0.1534
     10 C          61.7399   87.9731   11.4814 C.3     1  UNL1        0.0261
     11 C          60.7126   89.0145   11.8128 C.3     1  UNL1        0.0020
     12 C          60.3041   87.7567   11.1050 C.3     1  UNL1        0.0020
     13 C          62.9669   88.6305   12.0404 C.3     1  UNL1        0.0867
     14 O          62.9791   90.4017   10.1397 O.2     1  UNL1       -0.2749
     15 C          63.4185   89.9560   11.5029 C.2     1  UNL1        0.2257
     16 N          64.3094   90.8360   12.3286 N.am    1  UNL1       -0.2795
     17 C          64.7610   92.1616   11.7911 C.3     1  UNL1        0.0935
     18 C          65.6519   93.0416   12.6169 C.3     1  UNL1        0.0240
     19 C          66.0913   92.5960   13.9801 C.3     1  UNL1        0.0327
     20 C          65.6398   91.2704   14.5176 C.3     1  UNL1        0.0240
     21 C          64.7488   90.3904   13.6919 C.3     1  UNL1        0.0935
     22 C          66.9823   93.4760   14.8058 C.3     1  UNL1        0.1372
     23 O          66.9148   93.4179   16.3031 O.3     1  UNL1       -0.3820
     24 H          66.0491   93.7388   16.6005 H       1  UNL1        0.2104
     25 S          62.8846   85.9558   13.3840 S.O2    1  UNL1        0.0634
     26 O          61.6946   85.0528   13.5203 O.2     1  UNL1       -0.1528
     27 O          63.9174   86.8012   13.5866 O.2     1  UNL1       -0.1528
     28 C          62.8555   86.2169   14.8609 C.ar    1  UNL1        0.1223
     29 C          62.3612   85.1570   15.8002 C.ar    1  UNL1        0.0208
     30 C          62.3321   85.4180   17.2771 C.ar    1  UNL1        0.0128
     31 C          62.7973   86.7388   17.8145 C.ar    1  UNL1        0.0578
     32 CL         62.7682   86.9998   19.2913 Cl      1  UNL1       -0.0822
     33 C          63.2916   87.7987   16.8752 C.ar    1  UNL1        0.0128
     34 C          63.3207   87.5377   15.3983 C.ar    1  UNL1        0.0208
@<TRIPOS>BOND
     1    14    15    2
     2    15    13    1
     3    13    10    1
     4     1    10    1
     5     1     2    1
     6     2     3    1
     7     3     4    1
     8     4     5    1
     9     5     6    1
    10     6     7    1
    11     8     7    1
    12     8     9    1
    13     9    25    1
    14    25    26    2
    15    25    27    2
    16    25    28    1
    17    28    29   ar
    18    29    30   ar
    19    30    31   ar
    20    31    32    1
    21    31    33   ar
    22    33    34   ar
    23    10    11    1
    24    11    12    1
    25    15    16   am
    26    16    17    1
    27    17    18    1
    28    18    19    1
    29    19    22    1
    30    22    23    1
    31    19    20    1
    32    20    21    1
    33    12    10    1
    34    21    16    1
    35     9     1    1
    36    34    28   ar
    37     8     4    1
    38    23    24    1
