@<TRIPOS>MOLECULE
*****
 42 46 0 0 0
SMALL
GASTEIGER

@<TRIPOS>ATOM
      1 N          61.5115   87.6029   11.1647 N.pl3   1  UNL1       -0.2770
      2 C          62.9237   85.7493    8.8800 C.3     1  UNL1        0.1332
      3 N          62.6142   85.3316   10.2870 N.ar    1  UNL1       -0.2976
      4 C          61.9651   86.1836   11.3372 C.ar    1  UNL1        0.2014
      5 N          61.8491   85.3670   12.5900 N.ar    1  UNL1       -0.2136
      6 C          62.4266   84.0103   12.3143 C.ar    1  UNL1        0.0999
      7 C          62.5829   82.7921   13.1753 C.ar    1  UNL1        0.0245
      8 C          63.2121   81.5520   12.6130 C.ar    1  UNL1        0.0730
      9 C          63.6849   81.5301   11.1896 C.ar    1  UNL1        0.0054
     10 C          63.5286   82.7483   10.3286 C.ar    1  UNL1        0.0187
     11 C          62.8994   83.9884   10.8909 C.ar    1  UNL1        0.0799
     12 C          63.3684   80.3337   13.4741 C.3     1  UNL1        0.4186
     13 F          63.5248   79.1155   14.3351 F       1  UNL1       -0.1659
     14 F          64.2883   81.0940   14.3827 F       1  UNL1       -0.1659
     15 F          62.4486   79.5734   12.5654 F       1  UNL1       -0.1659
     16 C          62.4424   88.7327   11.4917 C.3     1  UNL1        0.0758
     17 C          63.0703   88.8176   12.8513 C.3     1  UNL1        0.0198
     18 C          64.0012   89.9474   13.1784 C.3     1  UNL1        0.0017
     19 C          64.3041   90.9924   12.1458 C.3     1  UNL1        0.0001
     20 C          63.6762   90.9076   10.7862 C.3     1  UNL1        0.0017
     21 C          62.7454   89.7778   10.4591 C.3     1  UNL1        0.0198
     22 C          65.2350   92.1223   12.4729 C.3     1  UNL1        0.0000
     23 C          65.0866   92.6487   11.0762 C.3     1  UNL1        0.0000
     24 C          65.3834   91.5958   13.8695 C.3     1  UNL1        0.0000
     25 C          66.1659   93.2521   12.7998 C.3     1  UNL1        0.0000
     26 C          60.1271   87.8925   10.6651 C.3     1  UNL1        0.1202
     27 C          59.9347   88.6041    9.3588 C.ar    1  UNL1       -0.0023
     28 C          59.5609   87.8287    8.1303 C.ar    1  UNL1       -0.0025
     29 C          59.3685   88.5403    6.8239 C.ar    1  UNL1        0.0043
     30 C          59.5499   90.0273    6.7460 C.ar    1  UNL1        0.0537
     31 C          59.9237   90.8026    7.9745 C.ar    1  UNL1        0.0043
     32 C          60.1161   90.0910    9.2808 C.ar    1  UNL1       -0.0025
     33 C          59.3575   90.7389    5.4397 C.2     1  UNL1        0.2517
     34 O          58.0115   90.7406    4.7777 O.2     1  UNL1       -0.2697
     35 N          60.5112   91.4488    4.7953 N.am    1  UNL1       -0.2495
     36 H          61.3946   91.4477    5.2298 H       1  UNL1        0.1581
     37 C          60.3188   92.1604    3.4889 C.ar    1  UNL1        0.2389
     38 N          61.4069   92.5883    2.5493 N.ar    1  UNL1       -0.0922
     39 N          60.7651   93.2614    1.3725 N.ar    1  UNL1       -0.0216
     40 N          59.2803   93.2495    1.5847 N.ar    1  UNL1       -0.0454
     41 N          59.0044   92.5691    2.8927 N.ar    1  UNL1       -0.2269
     42 H          58.1166   92.4173    3.2901 H       1  UNL1        0.1936
@<TRIPOS>BOND
     1     2     3    1
     2     3     4   ar
     3     4     1    1
     4     1    26    1
     5    26    27    1
     6    27    28   ar
     7    28    29   ar
     8    29    30   ar
     9    30    33    1
    10    33    34    2
    11    33    35   am
    12    35    37    1
    13    37    38   ar
    14    38    39   ar
    15    39    40   ar
    16    40    41   ar
    17    30    31   ar
    18    31    32   ar
    19    16     1    1
    20    16    17    1
    21    17    18    1
    22    18    19    1
    23    19    22    1
    24    22    23    1
    25    22    24    1
    26    22    25    1
    27    19    20    1
    28    20    21    1
    29     4     5   ar
    30     5     6   ar
    31     6     7   ar
    32     7     8   ar
    33     8    12    1
    34    12    13    1
    35    12    14    1
    36    12    15    1
    37     8     9   ar
    38     9    10   ar
    39    10    11   ar
    40    11     3   ar
    41    32    27   ar
    42    21    16    1
    43    11     6   ar
    44    41    37   ar
    45    35    36    1
    46    41    42    1
@<TRIPOS>MOLECULE
*****
 42 46 0 0 0
SMALL
GASTEIGER

@<TRIPOS>ATOM
      1 N          62.4218   86.0234   12.3368 N.pl3   1  UNL1       -0.2770
      2 C          62.3139   84.1226   14.9872 C.3     1  UNL1        0.1332
      3 N          62.4461   83.6516   13.5692 N.ar    1  UNL1       -0.2976
      4 C          62.4957   84.5253   12.3510 C.ar    1  UNL1        0.2014
      5 N          62.6321   83.6378   11.1494 N.ar    1  UNL1       -0.2136
      6 C          62.6668   82.2157   11.6250 C.ar    1  UNL1        0.0999
      7 C          62.7882   80.9140   10.8895 C.ar    1  UNL1        0.0245
      8 C          62.7947   79.6209   11.6495 C.ar    1  UNL1        0.0730
      9 C          62.6797   79.6294   13.1451 C.ar    1  UNL1        0.0054
     10 C          62.5583   80.9310   13.8806 C.ar    1  UNL1        0.0187
     11 C          62.5518   82.2241   13.1206 C.ar    1  UNL1        0.0799
     12 C          62.9161   78.3192   10.9140 C.3     1  UNL1        0.4186
     13 F          63.0375   77.0175   10.1786 F       1  UNL1       -0.1659
     14 F          62.8654   77.5782   12.2172 F       1  UNL1       -0.1659
     15 F          62.9669   79.0602    9.6109 F       1  UNL1       -0.1659
     16 C          61.7451   86.7302   11.2000 C.3     1  UNL1        0.0758
     17 C          62.2478   86.5490    9.7984 C.3     1  UNL1        0.0198
     18 C          61.5710   87.2559    8.6616 C.3     1  UNL1        0.0017
     19 C          60.3916   88.1440    8.9263 C.3     1  UNL1        0.0001
     20 C          59.8889   88.3252   10.3279 C.3     1  UNL1        0.0017
     21 C          60.5656   87.6184   11.4647 C.3     1  UNL1        0.0198
     22 C          59.7148   88.8509    7.7895 C.3     1  UNL1        0.0000
     23 C          59.1573   87.5439    7.3088 C.3     1  UNL1        0.0000
     24 C          60.2723   90.1578    8.2702 C.3     1  UNL1        0.0000
     25 C          59.0380   89.5577    6.6527 C.3     1  UNL1        0.0000
     26 C          63.0247   86.8147   13.4594 C.3     1  UNL1        0.1202
     27 C          63.5625   88.1912   13.2025 C.ar    1  UNL1       -0.0023
     28 C          64.5031   88.8243   14.1846 C.ar    1  UNL1       -0.0025
     29 C          65.0409   90.2008   13.9277 C.ar    1  UNL1        0.0043
     30 C          64.6379   90.9443   12.6887 C.ar    1  UNL1        0.0537
     31 C          63.6973   90.3112   11.7067 C.ar    1  UNL1        0.0043
     32 C          63.1596   88.9346   11.9636 C.ar    1  UNL1       -0.0025
     33 C          65.1757   92.3208   12.4318 C.2     1  UNL1        0.2517
     34 O          65.4947   93.2283   13.5827 O.2     1  UNL1       -0.2697
     35 N          65.3944   92.7899   11.0238 N.am    1  UNL1       -0.2495
     36 H          65.1850   92.1943   10.2684 H       1  UNL1        0.1581
     37 C          65.9321   94.1664   10.7669 C.ar    1  UNL1        0.2389
     38 N          66.7828   94.5774    9.6018 N.ar    1  UNL1       -0.0922
     39 N          67.0900   96.0387    9.7448 N.ar    1  UNL1       -0.0216
     40 N          66.4293   96.5307   10.9983 N.ar    1  UNL1       -0.0454
     41 N          65.7137   95.3736   11.6300 N.ar    1  UNL1       -0.2269
     42 H          65.1922   95.4016   12.4645 H       1  UNL1        0.1936
@<TRIPOS>BOND
     1     2     3    1
     2     3     4   ar
     3     4     1    1
     4     1    26    1
     5    26    27    1
     6    27    28   ar
     7    28    29   ar
     8    29    30   ar
     9    30    33    1
    10    33    34    2
    11    33    35   am
    12    35    37    1
    13    37    38   ar
    14    38    39   ar
    15    39    40   ar
    16    40    41   ar
    17    30    31   ar
    18    31    32   ar
    19    16     1    1
    20    16    17    1
    21    17    18    1
    22    18    19    1
    23    19    22    1
    24    22    23    1
    25    22    24    1
    26    22    25    1
    27    19    20    1
    28    20    21    1
    29     4     5   ar
    30     5     6   ar
    31     6     7   ar
    32     7     8   ar
    33     8    12    1
    34    12    13    1
    35    12    14    1
    36    12    15    1
    37     8     9   ar
    38     9    10   ar
    39    10    11   ar
    40    11     3   ar
    41    32    27   ar
    42    21    16    1
    43    11     6   ar
    44    41    37   ar
    45    35    36    1
    46    41    42    1
@<TRIPOS>MOLECULE
*****
 42 46 0 0 0
SMALL
GASTEIGER

@<TRIPOS>ATOM
      1 N          61.8950   87.7476   11.6492 N.pl3   1  UNL1       -0.2770
      2 C          63.2430   88.8430   14.4119 C.3     1  UNL1        0.1332
      3 N          63.3847   89.4655   13.0546 N.ar    1  UNL1       -0.2976
      4 C          62.7651   88.9620   11.7847 C.ar    1  UNL1        0.2014
      5 N          63.1684   89.8860   10.6741 N.ar    1  UNL1       -0.2136
      6 C          64.0373   90.9606   11.2576 C.ar    1  UNL1        0.0999
      7 C          64.7240   92.1422   10.6393 C.ar    1  UNL1        0.0245
      8 C          65.5443   93.0638   11.4922 C.ar    1  UNL1        0.0730
      9 C          65.6780   92.8039   12.9635 C.ar    1  UNL1        0.0054
     10 C          64.9913   91.6223   13.5818 C.ar    1  UNL1        0.0187
     11 C          64.1709   90.7007   12.7288 C.ar    1  UNL1        0.0799
     12 C          66.2310   94.2454   10.8739 C.3     1  UNL1        0.4186
     13 F          66.9177   95.4270   10.2557 F       1  UNL1       -0.1659
     14 F          66.0835   95.0038   12.1596 F       1  UNL1       -0.1659
     15 F          66.3785   93.4870    9.5882 F       1  UNL1       -0.1659
     16 C          62.4303   86.3963   12.0198 C.3     1  UNL1        0.0758
     17 C          63.3125   86.2433   13.2232 C.3     1  UNL1        0.0198
     18 C          63.8477   84.8919   13.5938 C.3     1  UNL1        0.0017
     19 C          63.5008   83.6936   12.7610 C.3     1  UNL1        0.0001
     20 C          62.6186   83.8466   11.5576 C.3     1  UNL1        0.0017
     21 C          62.0833   85.1979   11.1869 C.3     1  UNL1        0.0198
     22 C          64.0360   82.3422   13.1316 C.3     1  UNL1        0.0000
     23 C          63.7619   82.6303   14.5779 C.3     1  UNL1        0.0000
     24 C          64.3101   82.0541   11.6853 C.3     1  UNL1        0.0000
     25 C          64.5712   80.9908   13.5022 C.3     1  UNL1        0.0000
     26 C          60.4897   87.8847   11.1431 C.3     1  UNL1        0.1202
     27 C          60.2302   88.5357    9.8169 C.ar    1  UNL1       -0.0023
     28 C          60.3689   90.0222    9.6712 C.ar    1  UNL1       -0.0025
     29 C          60.1094   90.6732    8.3450 C.ar    1  UNL1        0.0043
     30 C          59.7113   89.8377    7.1644 C.ar    1  UNL1        0.0537
     31 C          59.5727   88.3513    7.3102 C.ar    1  UNL1        0.0043
     32 C          59.8322   87.7003    8.6364 C.ar    1  UNL1       -0.0025
     33 C          59.4519   90.4887    5.8382 C.2     1  UNL1        0.2517
     34 O          58.1178   90.3275    5.1718 O.2     1  UNL1       -0.2697
     35 N          60.5266   91.3011    5.1785 N.am    1  UNL1       -0.2495
     36 H          61.4022   91.4069    5.6159 H       1  UNL1        0.1581
     37 C          60.2671   91.9521    3.8522 C.ar    1  UNL1        0.2389
     38 N          61.3084   92.3729    2.8579 N.ar    1  UNL1       -0.0922
     39 N          60.6057   92.9775    1.6786 N.ar    1  UNL1       -0.0216
     40 N          59.1301   92.9303    1.9441 N.ar    1  UNL1       -0.0454
     41 N          58.9209   92.2966    3.2875 N.ar    1  UNL1       -0.2269
     42 H          58.0525   92.1351    3.7222 H       1  UNL1        0.1936
@<TRIPOS>BOND
     1     2     3    1
     2     3     4   ar
     3     4     1    1
     4     1    26    1
     5    26    27    1
     6    27    28   ar
     7    28    29   ar
     8    29    30   ar
     9    30    33    1
    10    33    34    2
    11    33    35   am
    12    35    37    1
    13    37    38   ar
    14    38    39   ar
    15    39    40   ar
    16    40    41   ar
    17    30    31   ar
    18    31    32   ar
    19    16     1    1
    20    16    17    1
    21    17    18    1
    22    18    19    1
    23    19    22    1
    24    22    23    1
    25    22    24    1
    26    22    25    1
    27    19    20    1
    28    20    21    1
    29     4     5   ar
    30     5     6   ar
    31     6     7   ar
    32     7     8   ar
    33     8    12    1
    34    12    13    1
    35    12    14    1
    36    12    15    1
    37     8     9   ar
    38     9    10   ar
    39    10    11   ar
    40    11     3   ar
    41    32    27   ar
    42    21    16    1
    43    11     6   ar
    44    41    37   ar
    45    35    36    1
    46    41    42    1
@<TRIPOS>MOLECULE
*****
 42 46 0 0 0
SMALL
GASTEIGER

@<TRIPOS>ATOM
      1 N          61.7141   87.6451   11.6706 N.pl3   1  UNL1       -0.2770
      2 C          62.8165   90.2216    9.9986 C.3     1  UNL1        0.1332
      3 N          63.1911   89.8571   11.4046 N.ar    1  UNL1       -0.2976
      4 C          62.6844   88.6727   12.1731 C.ar    1  UNL1        0.2014
      5 N          63.3183   88.6966   13.5324 N.ar    1  UNL1       -0.2136
      6 C          64.2168   89.8956   13.6039 C.ar    1  UNL1        0.0999
      7 C          65.0963   90.4269   14.6966 C.ar    1  UNL1        0.0245
      8 C          65.8973   91.6755   14.4742 C.ar    1  UNL1        0.0730
      9 C          65.8187   92.3927   13.1592 C.ar    1  UNL1        0.0054
     10 C          64.9391   91.8614   12.0665 C.ar    1  UNL1        0.0187
     11 C          64.1382   90.6128   12.2888 C.ar    1  UNL1        0.0799
     12 C          66.7769   92.2069   15.5670 C.3     1  UNL1        0.4186
     13 F          67.6565   92.7383   16.6596 F       1  UNL1       -0.1659
     14 F          67.9829   91.6611   14.8616 F       1  UNL1       -0.1659
     15 F          65.5709   92.7527   16.2723 F       1  UNL1       -0.1659
     16 C          62.1257   86.2055   11.5813 C.3     1  UNL1        0.0758
     17 C          62.3625   85.5749   10.2410 C.3     1  UNL1        0.0198
     18 C          62.7741   84.1352   10.1517 C.3     1  UNL1        0.0017
     19 C          62.9489   83.3261   11.4026 C.3     1  UNL1        0.0001
     20 C          62.7122   83.9567   12.7428 C.3     1  UNL1        0.0017
     21 C          62.3006   85.3963   12.8322 C.3     1  UNL1        0.0198
     22 C          63.3606   81.8864   11.3132 C.3     1  UNL1        0.0000
     23 C          64.2498   82.2129   10.1502 C.3     1  UNL1        0.0000
     24 C          62.4713   81.5600   12.4763 C.3     1  UNL1        0.0000
     25 C          63.7722   80.4468   11.2239 C.3     1  UNL1        0.0000
     26 C          60.3323   88.0570   11.2575 C.3     1  UNL1        0.1202
     27 C          60.1049   88.6727    9.9087 C.ar    1  UNL1       -0.0023
     28 C          59.9797   90.1616    9.7754 C.ar    1  UNL1       -0.0025
     29 C          59.7523   90.7773    8.4266 C.ar    1  UNL1        0.0043
     30 C          59.6503   89.9042    7.2111 C.ar    1  UNL1        0.0537
     31 C          59.7756   88.4154    7.3445 C.ar    1  UNL1        0.0043
     32 C          60.0029   87.7997    8.6933 C.ar    1  UNL1       -0.0025
     33 C          59.4230   90.5199    5.8624 C.2     1  UNL1        0.2517
     34 O          58.1103   90.3287    5.1623 O.2     1  UNL1       -0.2697
     35 N          60.5084   91.3268    5.2137 N.am    1  UNL1       -0.2495
     36 H          61.3700   91.4523    5.6732 H       1  UNL1        0.1581
     37 C          60.2811   91.9425    3.8649 C.ar    1  UNL1        0.2389
     38 N          61.3389   92.2524    2.8475 N.ar    1  UNL1       -0.0922
     39 N          60.6676   92.8578    1.6505 N.ar    1  UNL1       -0.0216
     40 N          59.1949   92.9223    1.9281 N.ar    1  UNL1       -0.0454
     41 N          58.9561   92.3566    3.2967 N.ar    1  UNL1       -0.2269
     42 H          58.0829   92.2719    3.7435 H       1  UNL1        0.1936
@<TRIPOS>BOND
     1     2     3    1
     2     3     4   ar
     3     4     1    1
     4     1    26    1
     5    26    27    1
     6    27    28   ar
     7    28    29   ar
     8    29    30   ar
     9    30    33    1
    10    33    34    2
    11    33    35   am
    12    35    37    1
    13    37    38   ar
    14    38    39   ar
    15    39    40   ar
    16    40    41   ar
    17    30    31   ar
    18    31    32   ar
    19    16     1    1
    20    16    17    1
    21    17    18    1
    22    18    19    1
    23    19    22    1
    24    22    23    1
    25    22    24    1
    26    22    25    1
    27    19    20    1
    28    20    21    1
    29     4     5   ar
    30     5     6   ar
    31     6     7   ar
    32     7     8   ar
    33     8    12    1
    34    12    13    1
    35    12    14    1
    36    12    15    1
    37     8     9   ar
    38     9    10   ar
    39    10    11   ar
    40    11     3   ar
    41    32    27   ar
    42    21    16    1
    43    11     6   ar
    44    41    37   ar
    45    35    36    1
    46    41    42    1
@<TRIPOS>MOLECULE
*****
 42 46 0 0 0
SMALL
GASTEIGER

@<TRIPOS>ATOM
      1 N          63.8784   90.3309   12.2556 N.pl3   1  UNL1       -0.2770
      2 C          60.8873   91.2489   11.3280 C.3     1  UNL1        0.1332
      3 N          61.6227   90.0308   10.8530 N.ar    1  UNL1       -0.2976
      4 C          62.9976   89.6089   11.2794 C.ar    1  UNL1        0.2014
      5 N          63.3369   88.3382   10.5581 N.ar    1  UNL1       -0.2136
      6 C          62.1718   87.9748    9.6860 C.ar    1  UNL1        0.0999
      7 C          61.9388   86.8266    8.7495 C.ar    1  UNL1        0.0245
      8 C          60.6463   86.7244    7.9953 C.ar    1  UNL1        0.0730
      9 C          59.5868   87.7705    8.1775 C.ar    1  UNL1        0.0054
     10 C          59.8199   88.9188    9.1140 C.ar    1  UNL1        0.0187
     11 C          61.1124   89.0210    9.8683 C.ar    1  UNL1        0.0799
     12 C          60.4131   85.5761    7.0587 C.3     1  UNL1        0.4186
     13 F          60.1801   84.4278    6.1222 F       1  UNL1       -0.1659
     14 F          61.8833   85.2788    7.0574 F       1  UNL1       -0.1659
     15 F          58.9429   85.8734    7.0600 F       1  UNL1       -0.1659
     16 C          64.5437   91.6150   11.8579 C.3     1  UNL1        0.0758
     17 C          65.3851   92.3623   12.8498 C.3     1  UNL1        0.0198
     18 C          66.0504   93.6465   12.4521 C.3     1  UNL1        0.0017
     19 C          65.8744   94.1835   11.0626 C.3     1  UNL1        0.0001
     20 C          65.0330   93.4363   10.0708 C.3     1  UNL1        0.0017
     21 C          64.3676   92.1521   10.4684 C.3     1  UNL1        0.0198
     22 C          66.5397   95.4677   10.6649 C.3     1  UNL1        0.0000
     23 C          66.0811   96.1016   11.9447 C.3     1  UNL1        0.0000
     24 C          66.9983   94.8339    9.3852 C.3     1  UNL1        0.0000
     25 C          67.2050   96.7520   10.2673 C.3     1  UNL1        0.0000
     26 C          64.0939   89.7686   13.6294 C.3     1  UNL1        0.1202
     27 C          63.9436   88.2955   13.8690 C.ar    1  UNL1       -0.0023
     28 C          63.3126   87.4259   12.8222 C.ar    1  UNL1       -0.0025
     29 C          63.1623   85.9528   13.0618 C.ar    1  UNL1        0.0043
     30 C          63.6431   85.3493   14.3482 C.ar    1  UNL1        0.0537
     31 C          64.2741   86.2189   15.3949 C.ar    1  UNL1        0.0043
     32 C          64.4244   87.6920   15.1553 C.ar    1  UNL1       -0.0025
     33 C          63.4929   83.8762   14.5877 C.2     1  UNL1        0.2517
     34 O          64.1799   83.2324   15.7554 O.2     1  UNL1       -0.2697
     35 N          62.6556   83.0470   13.6596 N.am    1  UNL1       -0.2495
     36 H          62.2047   83.4696   12.8932 H       1  UNL1        0.1581
     37 C          62.5054   81.5739   13.8992 C.ar    1  UNL1        0.2389
     38 N          61.2162   80.8070   13.8959 N.ar    1  UNL1       -0.0922
     39 N          61.5320   79.3682   14.1788 N.ar    1  UNL1       -0.0216
     40 N          63.0163   79.2458   14.3569 N.ar    1  UNL1       -0.0454
     41 N          63.6179   80.6089   14.1841 N.ar    1  UNL1       -0.2269
     42 H          64.5749   80.8313   14.2467 H       1  UNL1        0.1936
@<TRIPOS>BOND
     1     2     3    1
     2     3     4   ar
     3     4     1    1
     4     1    26    1
     5    26    27    1
     6    27    28   ar
     7    28    29   ar
     8    29    30   ar
     9    30    33    1
    10    33    34    2
    11    33    35   am
    12    35    37    1
    13    37    38   ar
    14    38    39   ar
    15    39    40   ar
    16    40    41   ar
    17    30    31   ar
    18    31    32   ar
    19    16     1    1
    20    16    17    1
    21    17    18    1
    22    18    19    1
    23    19    22    1
    24    22    23    1
    25    22    24    1
    26    22    25    1
    27    19    20    1
    28    20    21    1
    29     4     5   ar
    30     5     6   ar
    31     6     7   ar
    32     7     8   ar
    33     8    12    1
    34    12    13    1
    35    12    14    1
    36    12    15    1
    37     8     9   ar
    38     9    10   ar
    39    10    11   ar
    40    11     3   ar
    41    32    27   ar
    42    21    16    1
    43    11     6   ar
    44    41    37   ar
    45    35    36    1
    46    41    42    1
@<TRIPOS>MOLECULE
*****
 42 46 0 0 0
SMALL
GASTEIGER

@<TRIPOS>ATOM
      1 N          61.2816   88.0563   11.0770 N.pl3   1  UNL1       -0.2770
      2 C          62.8280   86.4256    8.7107 C.3     1  UNL1        0.1332
      3 N          62.4922   85.8949   10.0729 N.ar    1  UNL1       -0.2976
      4 C          61.7814   86.6444   11.1605 C.ar    1  UNL1        0.2014
      5 N          61.6581   85.7342   12.3464 N.ar    1  UNL1       -0.2136
      6 C          62.2928   84.4222   11.9916 C.ar    1  UNL1        0.0999
      7 C          62.4678   83.1499   12.7666 C.ar    1  UNL1        0.0245
      8 C          63.1584   81.9769   12.1364 C.ar    1  UNL1        0.0730
      9 C          63.6739   82.0762   10.7312 C.ar    1  UNL1        0.0054
     10 C          63.4988   83.3485    9.9563 C.ar    1  UNL1        0.0187
     11 C          62.8082   84.5215   10.5865 C.ar    1  UNL1        0.0799
     12 C          63.3335   80.7045   12.9113 C.3     1  UNL1        0.4186
     13 F          63.5086   79.4322   13.6861 F       1  UNL1       -0.1659
     14 F          62.7938   79.9232   11.7502 F       1  UNL1       -0.1659
     15 F          63.8733   81.4859   14.0724 F       1  UNL1       -0.1659
     16 C          60.7132   88.5757    9.7897 C.3     1  UNL1        0.0758
     17 C          59.7880   87.7181    8.9782 C.3     1  UNL1        0.0198
     18 C          59.2196   88.2376    7.6909 C.3     1  UNL1        0.0017
     19 C          59.5764   89.6147    7.2152 C.3     1  UNL1        0.0001
     20 C          60.5016   90.4723    8.0266 C.3     1  UNL1        0.0017
     21 C          61.0700   89.9528    9.3139 C.3     1  UNL1        0.0198
     22 C          59.0080   90.1342    5.9278 C.3     1  UNL1        0.0000
     23 C          57.6348   89.7206    6.3673 C.3     1  UNL1        0.0000
     24 C          60.3812   90.5478    5.4884 C.3     1  UNL1        0.0000
     25 C          58.4396   90.6537    4.6406 C.3     1  UNL1        0.0000
     26 C          61.3502   88.9486   12.2806 C.3     1  UNL1        0.1202
     27 C          62.6083   89.7086   12.5801 C.ar    1  UNL1       -0.0023
     28 C          63.4443   89.3367   13.7688 C.ar    1  UNL1       -0.0025
     29 C          64.7023   90.0967   14.0682 C.ar    1  UNL1        0.0043
     30 C          65.1244   91.2287   13.1790 C.ar    1  UNL1        0.0537
     31 C          64.2884   91.6006   11.9905 C.ar    1  UNL1        0.0043
     32 C          63.0303   90.8406   11.6910 C.ar    1  UNL1       -0.0025
     33 C          66.3824   91.9887   13.4785 C.2     1  UNL1        0.2517
     34 O          67.1825   92.5857   12.3590 O.2     1  UNL1       -0.2697
     35 N          66.8404   92.1517   14.8976 N.am    1  UNL1       -0.2495
     36 H          66.3153   91.7598   15.6324 H       1  UNL1        0.1581
     37 C          68.0984   92.9117   15.1971 C.ar    1  UNL1        0.2389
     38 N          68.2301   94.0547   16.1594 N.ar    1  UNL1       -0.0922
     39 N          69.6587   94.5116   16.1439 N.ar    1  UNL1       -0.0216
     40 N          70.4101   93.6509   15.1719 N.ar    1  UNL1       -0.0454
     41 N          69.4457   92.6622   14.5868 N.ar    1  UNL1       -0.2269
     42 H          69.6596   91.9708   13.9193 H       1  UNL1        0.1936
@<TRIPOS>BOND
     1     2     3    1
     2     3     4   ar
     3     4     1    1
     4     1    26    1
     5    26    27    1
     6    27    28   ar
     7    28    29   ar
     8    29    30   ar
     9    30    33    1
    10    33    34    2
    11    33    35   am
    12    35    37    1
    13    37    38   ar
    14    38    39   ar
    15    39    40   ar
    16    40    41   ar
    17    30    31   ar
    18    31    32   ar
    19    16     1    1
    20    16    17    1
    21    17    18    1
    22    18    19    1
    23    19    22    1
    24    22    23    1
    25    22    24    1
    26    22    25    1
    27    19    20    1
    28    20    21    1
    29     4     5   ar
    30     5     6   ar
    31     6     7   ar
    32     7     8   ar
    33     8    12    1
    34    12    13    1
    35    12    14    1
    36    12    15    1
    37     8     9   ar
    38     9    10   ar
    39    10    11   ar
    40    11     3   ar
    41    32    27   ar
    42    21    16    1
    43    11     6   ar
    44    41    37   ar
    45    35    36    1
    46    41    42    1
@<TRIPOS>MOLECULE
*****
 42 46 0 0 0
SMALL
GASTEIGER

@<TRIPOS>ATOM
      1 N          64.2089   88.8301   14.3988 N.pl3   1  UNL1       -0.2770
      2 C          63.4544   91.4389   12.5892 C.3     1  UNL1        0.1332
      3 N          63.0348   90.0249   12.3158 N.ar    1  UNL1       -0.2976
      4 C          63.3816   88.8258   13.1476 C.ar    1  UNL1        0.2014
      5 N          62.7558   87.6217   12.5084 N.ar    1  UNL1       -0.2136
      6 C          62.0223   88.0766   11.2817 C.ar    1  UNL1        0.0999
      7 C          61.2196   87.3303   10.2576 C.ar    1  UNL1        0.0245
      8 C          60.5894   88.0692    9.1145 C.ar    1  UNL1        0.0730
      9 C          60.7618   89.5545    8.9955 C.ar    1  UNL1        0.0054
     10 C          61.5644   90.3009   10.0195 C.ar    1  UNL1        0.0187
     11 C          62.1947   89.5619   11.1626 C.ar    1  UNL1        0.0799
     12 C          59.7867   87.3229    8.0904 C.3     1  UNL1        0.4186
     13 F          58.9840   86.5766    7.0664 F       1  UNL1       -0.1659
     14 F          59.4079   88.6210    7.4413 F       1  UNL1       -0.1659
     15 F          60.1654   86.0248    8.7395 F       1  UNL1       -0.1659
     16 C          65.1253   89.9818   14.6881 C.3     1  UNL1        0.0758
     17 C          66.4541   90.0745   13.9983 C.3     1  UNL1        0.0198
     18 C          67.3705   91.2263   14.2877 C.3     1  UNL1        0.0017
     19 C          66.9581   92.2853   15.2667 C.3     1  UNL1        0.0001
     20 C          65.6293   92.1925   15.9564 C.3     1  UNL1        0.0017
     21 C          64.7129   91.0408   15.6671 C.3     1  UNL1        0.0198
     22 C          67.8745   93.4371   15.5560 C.3     1  UNL1        0.0000
     23 C          68.6340   92.5877   16.5315 C.3     1  UNL1        0.0000
     24 C          67.1151   94.2865   14.5805 C.3     1  UNL1        0.0000
     25 C          68.7910   94.5888   15.8453 C.3     1  UNL1        0.0000
     26 C          64.1198   87.6827   15.3608 C.3     1  UNL1        0.1202
     27 C          63.9742   86.2815   14.8454 C.ar    1  UNL1       -0.0023
     28 C          62.6725   85.5539   15.0082 C.ar    1  UNL1       -0.0025
     29 C          62.5270   84.1528   14.4929 C.ar    1  UNL1        0.0043
     30 C          63.6831   83.4792   13.8148 C.ar    1  UNL1        0.0537
     31 C          64.9847   84.2067   13.6520 C.ar    1  UNL1        0.0043
     32 C          65.1302   85.6079   14.1674 C.ar    1  UNL1       -0.0025
     33 C          63.5376   82.0780   13.2995 C.2     1  UNL1        0.2517
     34 O          63.9197   80.9161   14.1677 O.2     1  UNL1       -0.2697
     35 N          63.0098   81.8388   11.9158 N.am    1  UNL1       -0.2495
     36 H          62.7590   82.6014   11.3460 H       1  UNL1        0.1581
     37 C          62.8643   80.4376   11.4005 C.ar    1  UNL1        0.2389
     38 N          63.0187   80.0026    9.9733 N.ar    1  UNL1       -0.0922
     39 N          62.7886   78.5216    9.9126 N.ar    1  UNL1       -0.0216
     40 N          62.4920   78.0413   11.3023 N.ar    1  UNL1       -0.0454
     41 N          62.5388   79.2255   12.2219 N.ar    1  UNL1       -0.2269
     42 H          62.3832   79.2098   13.1939 H       1  UNL1        0.1936
@<TRIPOS>BOND
     1     2     3    1
     2     3     4   ar
     3     4     1    1
     4     1    26    1
     5    26    27    1
     6    27    28   ar
     7    28    29   ar
     8    29    30   ar
     9    30    33    1
    10    33    34    2
    11    33    35   am
    12    35    37    1
    13    37    38   ar
    14    38    39   ar
    15    39    40   ar
    16    40    41   ar
    17    30    31   ar
    18    31    32   ar
    19    16     1    1
    20    16    17    1
    21    17    18    1
    22    18    19    1
    23    19    22    1
    24    22    23    1
    25    22    24    1
    26    22    25    1
    27    19    20    1
    28    20    21    1
    29     4     5   ar
    30     5     6   ar
    31     6     7   ar
    32     7     8   ar
    33     8    12    1
    34    12    13    1
    35    12    14    1
    36    12    15    1
    37     8     9   ar
    38     9    10   ar
    39    10    11   ar
    40    11     3   ar
    41    32    27   ar
    42    21    16    1
    43    11     6   ar
    44    41    37   ar
    45    35    36    1
    46    41    42    1
@<TRIPOS>MOLECULE
*****
 42 46 0 0 0
SMALL
GASTEIGER

@<TRIPOS>ATOM
      1 N          61.2851   88.3089   10.6858 N.pl3   1  UNL1       -0.2770
      2 C          58.7286   87.0502    9.0955 C.3     1  UNL1        0.1332
      3 N          59.5308   88.2442    8.6701 N.ar    1  UNL1       -0.2976
      4 C          60.7059   88.8227    9.4012 C.ar    1  UNL1        0.2014
      5 N          61.2000   90.0053    8.6219 N.ar    1  UNL1       -0.2136
      6 C          60.3303   90.1577    7.4093 C.ar    1  UNL1        0.0999
      7 C          60.3444   91.1469    6.2818 C.ar    1  UNL1        0.0245
      8 C          59.3270   91.0476    5.1842 C.ar    1  UNL1        0.0730
      9 C          58.2953   89.9591    5.2140 C.ar    1  UNL1        0.0054
     10 C          58.2811   88.9699    6.3415 C.ar    1  UNL1        0.0187
     11 C          59.2986   89.0692    7.4391 C.ar    1  UNL1        0.0799
     12 C          59.3411   92.0369    4.0567 C.3     1  UNL1        0.4186
     13 F          59.3552   93.0261    2.9292 F       1  UNL1       -0.1659
     14 F          57.8414   92.0282    4.0303 F       1  UNL1       -0.1659
     15 F          60.8408   92.0456    4.0831 F       1  UNL1       -0.1659
     16 C          61.8350   86.9151   10.7561 C.3     1  UNL1        0.0758
     17 C          62.3242   86.2381    9.5102 C.3     1  UNL1        0.0198
     18 C          62.8741   84.8442    9.5806 C.3     1  UNL1        0.0017
     19 C          62.9347   84.1274   10.8968 C.3     1  UNL1        0.0001
     20 C          62.4454   84.8044   12.1427 C.3     1  UNL1        0.0017
     21 C          61.8956   86.1982   12.0724 C.3     1  UNL1        0.0198
     22 C          63.4845   82.7336   10.9672 C.3     1  UNL1        0.0000
     23 C          64.4539   83.0607    9.8703 C.3     1  UNL1        0.0000
     24 C          62.5151   82.4065   12.0640 C.3     1  UNL1        0.0000
     25 C          64.0344   81.3398   11.0375 C.3     1  UNL1        0.0000
     26 C          61.3146   89.1888   11.9002 C.3     1  UNL1        0.1202
     27 C          62.5700   89.9256   12.2623 C.ar    1  UNL1       -0.0023
     28 C          63.2437   89.6591   13.5758 C.ar    1  UNL1       -0.0025
     29 C          64.4991   90.3959   13.9379 C.ar    1  UNL1        0.0043
     30 C          65.0808   91.3992   12.9865 C.ar    1  UNL1        0.0537
     31 C          64.4071   91.6656   11.6731 C.ar    1  UNL1        0.0043
     32 C          63.1517   90.9289   11.3110 C.ar    1  UNL1       -0.0025
     33 C          66.3362   92.1360   13.3485 C.2     1  UNL1        0.2517
     34 O          67.1468   92.8071   12.2796 O.2     1  UNL1       -0.2697
     35 N          66.7810   92.2017   14.7796 N.am    1  UNL1       -0.2495
     36 H          66.2490   91.7612   15.4812 H       1  UNL1        0.1581
     37 C          68.0364   92.9385   15.1417 C.ar    1  UNL1        0.2389
     38 N          68.1560   94.0248   16.1691 N.ar    1  UNL1       -0.0922
     39 N          69.5862   94.4760   16.2023 N.ar    1  UNL1       -0.0216
     40 N          70.3505   93.6686   15.1954 N.ar    1  UNL1       -0.0454
     41 N          69.3927   92.7183   14.5399 N.ar    1  UNL1       -0.2269
     42 H          69.6151   92.0649   13.8380 H       1  UNL1        0.1936
@<TRIPOS>BOND
     1     2     3    1
     2     3     4   ar
     3     4     1    1
     4     1    26    1
     5    26    27    1
     6    27    28   ar
     7    28    29   ar
     8    29    30   ar
     9    30    33    1
    10    33    34    2
    11    33    35   am
    12    35    37    1
    13    37    38   ar
    14    38    39   ar
    15    39    40   ar
    16    40    41   ar
    17    30    31   ar
    18    31    32   ar
    19    16     1    1
    20    16    17    1
    21    17    18    1
    22    18    19    1
    23    19    22    1
    24    22    23    1
    25    22    24    1
    26    22    25    1
    27    19    20    1
    28    20    21    1
    29     4     5   ar
    30     5     6   ar
    31     6     7   ar
    32     7     8   ar
    33     8    12    1
    34    12    13    1
    35    12    14    1
    36    12    15    1
    37     8     9   ar
    38     9    10   ar
    39    10    11   ar
    40    11     3   ar
    41    32    27   ar
    42    21    16    1
    43    11     6   ar
    44    41    37   ar
    45    35    36    1
    46    41    42    1
