@<TRIPOS>MOLECULE
*****
 29 31 0 0 0
SMALL
GASTEIGER

@<TRIPOS>ATOM
      1 O          62.3556   89.3995   16.0969 O.2     1  UNL1       -0.2732
      2 C          63.3501   88.2950   15.8939 C.2     1  UNL1        0.2430
      3 N          64.4724   88.4671   14.9138 N.am    1  UNL1       -0.2972
      4 H          65.1251   87.7422   14.7806 H       1  UNL1        0.1500
      5 C          63.2223   87.0185   16.6711 C.3     1  UNL1        0.1759
      6 N          62.8745   85.7418   15.9645 N.am    1  UNL1       -0.2931
      7 C          63.8964   85.0572   15.1062 C.2     1  UNL1        0.2462
      8 O          65.2663   85.6492   14.9544 O.2     1  UNL1       -0.2701
      9 H          61.9754   85.3533   16.0642 H       1  UNL1        0.1502
     10 C          63.5486   83.7805   14.3996 C.ar    1  UNL1        0.0535
     11 C          62.3767   82.9645   14.8587 C.ar    1  UNL1        0.0068
     12 C          62.0290   81.6879   14.1522 C.ar    1  UNL1        0.0298
     13 C          62.8530   81.2273   12.9865 C.ar    1  UNL1        0.1401
     14 F          62.5052   79.9506   12.2799 F       1  UNL1       -0.2042
     15 C          64.0249   82.0433   12.5274 C.ar    1  UNL1        0.0298
     16 C          64.3727   83.3199   13.2340 C.ar    1  UNL1        0.0068
     17 C          64.6003   89.7437   14.1365 C.3     1  UNL1        0.1169
     18 C          63.8838   89.9001   12.8280 C.ar    1  UNL1       -0.0003
     19 C          63.0975   88.7549   12.2620 C.ar    1  UNL1       -0.0024
     20 C          62.3810   88.9113   10.9535 C.ar    1  UNL1       -0.0003
     21 C          62.4508   90.2127   10.2110 C.ar    1  UNL1       -0.0000
     22 C          63.2372   91.3579   10.7770 C.ar    1  UNL1       -0.0003
     23 C          63.9536   91.2015   12.0855 C.ar    1  UNL1       -0.0024
     24 C          65.4446   90.8639   14.6678 C.ar    1  UNL1       -0.0003
     25 C          66.7906   91.1393   14.0655 C.ar    1  UNL1       -0.0024
     26 C          67.6349   92.2595   14.5968 C.ar    1  UNL1       -0.0003
     27 C          67.1334   93.1042   15.7304 C.ar    1  UNL1       -0.0000
     28 C          65.7875   92.8288   16.3326 C.ar    1  UNL1       -0.0003
     29 C          64.9431   91.7086   15.8013 C.ar    1  UNL1       -0.0024
@<TRIPOS>BOND
     1     1     2    2
     2     2     5    1
     3     5     6    1
     4     6     7   am
     5     7     8    2
     6     7    10    1
     7    10    11   ar
     8    11    12   ar
     9    12    13   ar
    10    13    14    1
    11    13    15   ar
    12    15    16   ar
    13     2     3   am
    14     3    17    1
    15    17    18    1
    16    18    19   ar
    17    19    20   ar
    18    20    21   ar
    19    21    22   ar
    20    22    23   ar
    21    17    24    1
    22    24    25   ar
    23    25    26   ar
    24    26    27   ar
    25    27    28   ar
    26    28    29   ar
    27    16    10   ar
    28    23    18   ar
    29    29    24   ar
    30     6     9    1
    31     3     4    1
@<TRIPOS>MOLECULE
*****
 29 31 0 0 0
SMALL
GASTEIGER

@<TRIPOS>ATOM
      1 O          62.3561   89.3492   16.2256 O.2     1  UNL1       -0.2732
      2 C          63.2983   88.2138   15.9551 C.2     1  UNL1        0.2430
      3 N          64.3806   88.3658   14.9277 N.am    1  UNL1       -0.2972
      4 H          64.9990   87.6207   14.7502 H       1  UNL1        0.1500
      5 C          63.1583   86.9264   16.7120 C.3     1  UNL1        0.1759
      6 N          62.8295   85.6585   15.9810 N.am    1  UNL1       -0.2931
      7 C          63.8608   85.0069   15.1082 C.2     1  UNL1        0.2462
      8 O          65.2210   85.6232   14.9664 O.2     1  UNL1       -0.2701
      9 H          61.9368   85.2540   16.0740 H       1  UNL1        0.1502
     10 C          63.5320   83.7390   14.3772 C.ar    1  UNL1        0.0535
     11 C          62.3700   82.8991   14.8177 C.ar    1  UNL1        0.0068
     12 C          62.0412   81.6313   14.0866 C.ar    1  UNL1        0.0298
     13 C          62.8745   81.2034   12.9151 C.ar    1  UNL1        0.1401
     14 F          62.5457   79.9354   12.1840 F       1  UNL1       -0.2042
     15 C          64.0366   82.0433   12.4746 C.ar    1  UNL1        0.0298
     16 C          64.3653   83.3111   13.2056 C.ar    1  UNL1        0.0068
     17 C          64.5206   89.6533   14.1708 C.3     1  UNL1        0.1169
     18 C          65.3459   90.7704   14.7372 C.ar    1  UNL1       -0.0003
     19 C          66.7235   91.0302   14.2038 C.ar    1  UNL1       -0.0024
     20 C          67.5488   92.1474   14.7702 C.ar    1  UNL1       -0.0003
     21 C          66.9965   93.0047   15.8702 C.ar    1  UNL1       -0.0000
     22 C          65.6188   92.7448   16.4037 C.ar    1  UNL1       -0.0003
     23 C          64.7935   91.6277   15.8372 C.ar    1  UNL1       -0.0024
     24 C          63.8354   89.8236   12.8473 C.ar    1  UNL1       -0.0003
     25 C          63.8968   91.1423   12.1351 C.ar    1  UNL1       -0.0024
     26 C          63.2116   91.3126   10.8117 C.ar    1  UNL1       -0.0003
     27 C          62.4650   90.1640   10.2004 C.ar    1  UNL1       -0.0000
     28 C          62.4037   88.8453   10.9126 C.ar    1  UNL1       -0.0003
     29 C          63.0889   88.6751   12.2361 C.ar    1  UNL1       -0.0024
@<TRIPOS>BOND
     1     1     2    2
     2     2     5    1
     3     5     6    1
     4     6     7   am
     5     7     8    2
     6     7    10    1
     7    10    11   ar
     8    11    12   ar
     9    12    13   ar
    10    13    14    1
    11    13    15   ar
    12    15    16   ar
    13     2     3   am
    14     3    17    1
    15    17    18    1
    16    18    19   ar
    17    19    20   ar
    18    20    21   ar
    19    21    22   ar
    20    22    23   ar
    21    17    24    1
    22    24    25   ar
    23    25    26   ar
    24    26    27   ar
    25    27    28   ar
    26    28    29   ar
    27    16    10   ar
    28    23    18   ar
    29    29    24   ar
    30     6     9    1
    31     3     4    1
@<TRIPOS>MOLECULE
*****
 29 31 0 0 0
SMALL
GASTEIGER

@<TRIPOS>ATOM
      1 O          59.9586   87.9812   11.6429 O.2     1  UNL1       -0.2732
      2 C          61.2328   88.7360   11.4047 C.2     1  UNL1        0.2430
      3 N          62.4510   88.0139   10.9103 N.am    1  UNL1       -0.2972
      4 H          63.2873   88.5093   10.7539 H       1  UNL1        0.1500
      5 C          61.2888   90.2128   11.6610 C.3     1  UNL1        0.1759
      6 N          62.5985   90.8688   11.9846 N.am    1  UNL1       -0.2931
      7 C          63.2227   90.6719   13.3342 C.2     1  UNL1        0.2462
      8 O          62.5374   89.8189   14.3603 O.2     1  UNL1       -0.2701
      9 H          63.0483   91.4286   11.3111 H       1  UNL1        0.1502
     10 C          64.5323   91.3278   13.6578 C.ar    1  UNL1        0.0535
     11 C          65.3053   92.0306   12.5814 C.ar    1  UNL1        0.0068
     12 C          66.6149   92.6865   12.9050 C.ar    1  UNL1        0.0298
     13 C          67.1515   92.6397   14.3050 C.ar    1  UNL1        0.1401
     14 F          68.4611   93.2956   14.6286 F       1  UNL1       -0.2042
     15 C          66.3785   91.9369   15.3813 C.ar    1  UNL1        0.0298
     16 C          65.0689   91.2810   15.0577 C.ar    1  UNL1        0.0068
     17 C          62.3951   86.5370   10.6540 C.3     1  UNL1        0.1169
     18 C          62.0130   86.0252    9.2968 C.ar    1  UNL1       -0.0003
     19 C          63.0284   85.3185    8.4485 C.ar    1  UNL1       -0.0024
     20 C          62.6463   84.8067    7.0912 C.ar    1  UNL1       -0.0003
     21 C          61.2489   85.0017    6.5822 C.ar    1  UNL1       -0.0000
     22 C          60.2335   85.7085    7.4305 C.ar    1  UNL1       -0.0003
     23 C          60.6156   86.2202    8.7877 C.ar    1  UNL1       -0.0024
     24 C          62.7212   85.5718   11.7550 C.ar    1  UNL1       -0.0003
     25 C          62.4236   84.1115   11.5848 C.ar    1  UNL1       -0.0024
     26 C          62.7497   83.1464   12.6858 C.ar    1  UNL1       -0.0003
     27 C          63.3735   83.6416   13.9569 C.ar    1  UNL1       -0.0000
     28 C          63.6711   85.1019   14.1270 C.ar    1  UNL1       -0.0003
     29 C          63.3450   86.0670   13.0260 C.ar    1  UNL1       -0.0024
@<TRIPOS>BOND
     1     1     2    2
     2     2     5    1
     3     5     6    1
     4     6     7   am
     5     7     8    2
     6     7    10    1
     7    10    11   ar
     8    11    12   ar
     9    12    13   ar
    10    13    14    1
    11    13    15   ar
    12    15    16   ar
    13     2     3   am
    14     3    17    1
    15    17    18    1
    16    18    19   ar
    17    19    20   ar
    18    20    21   ar
    19    21    22   ar
    20    22    23   ar
    21    17    24    1
    22    24    25   ar
    23    25    26   ar
    24    26    27   ar
    25    27    28   ar
    26    28    29   ar
    27    16    10   ar
    28    23    18   ar
    29    29    24   ar
    30     6     9    1
    31     3     4    1
@<TRIPOS>MOLECULE
*****
 29 31 0 0 0
SMALL
GASTEIGER

@<TRIPOS>ATOM
      1 O          59.9499   87.9853   11.6002 O.2     1  UNL1       -0.2732
      2 C          61.2349   88.7328   11.4001 C.2     1  UNL1        0.2430
      3 N          62.4621   88.0045   10.9380 N.am    1  UNL1       -0.2972
      4 H          63.3054   88.4952   10.8067 H       1  UNL1        0.1500
      5 C          61.2927   90.2086   11.6621 C.3     1  UNL1        0.1759
      6 N          62.6034   90.8620   11.9864 N.am    1  UNL1       -0.2931
      7 C          63.2179   90.6779   13.3423 C.2     1  UNL1        0.2462
      8 O          62.5218   89.8405   14.3739 O.2     1  UNL1       -0.2701
      9 H          63.0603   91.4116   11.3094 H       1  UNL1        0.1502
     10 C          64.5286   91.3313   13.6667 C.ar    1  UNL1        0.0535
     11 C          65.0698   91.2736   15.0644 C.ar    1  UNL1        0.0068
     12 C          66.3805   91.9270   15.3887 C.ar    1  UNL1        0.0298
     13 C          67.1499   92.6381   14.3153 C.ar    1  UNL1        0.1401
     14 F          68.4606   93.2916   14.6397 F       1  UNL1       -0.2042
     15 C          66.6087   92.6959   12.9176 C.ar    1  UNL1        0.0298
     16 C          65.2981   92.0425   12.5933 C.ar    1  UNL1        0.0068
     17 C          62.4043   86.5287   10.6760 C.3     1  UNL1        0.1169
     18 C          62.0122   86.0225    9.3195 C.ar    1  UNL1       -0.0003
     19 C          60.6140   86.2290    8.8174 C.ar    1  UNL1       -0.0024
     20 C          60.2218   85.7228    7.4609 C.ar    1  UNL1       -0.0003
     21 C          61.2280   85.0102    6.6065 C.ar    1  UNL1       -0.0000
     22 C          62.6263   84.8038    7.1088 C.ar    1  UNL1       -0.0003
     23 C          63.0184   85.3099    8.4652 C.ar    1  UNL1       -0.0024
     24 C          62.7387   85.5590   11.7705 C.ar    1  UNL1       -0.0003
     25 C          63.3563   86.0513   13.0458 C.ar    1  UNL1       -0.0024
     26 C          63.6907   85.0816   14.1403 C.ar    1  UNL1       -0.0003
     27 C          63.4074   83.6197   13.9596 C.ar    1  UNL1       -0.0000
     28 C          62.7898   83.1275   12.6843 C.ar    1  UNL1       -0.0003
     29 C          62.4555   84.0971   11.5898 C.ar    1  UNL1       -0.0024
@<TRIPOS>BOND
     1     1     2    2
     2     2     5    1
     3     5     6    1
     4     6     7   am
     5     7     8    2
     6     7    10    1
     7    10    11   ar
     8    11    12   ar
     9    12    13   ar
    10    13    14    1
    11    13    15   ar
    12    15    16   ar
    13     2     3   am
    14     3    17    1
    15    17    18    1
    16    18    19   ar
    17    19    20   ar
    18    20    21   ar
    19    21    22   ar
    20    22    23   ar
    21    17    24    1
    22    24    25   ar
    23    25    26   ar
    24    26    27   ar
    25    27    28   ar
    26    28    29   ar
    27    16    10   ar
    28    23    18   ar
    29    29    24   ar
    30     6     9    1
    31     3     4    1
@<TRIPOS>MOLECULE
*****
 29 31 0 0 0
SMALL
GASTEIGER

@<TRIPOS>ATOM
      1 O          59.9587   87.9807   11.6139 O.2     1  UNL1       -0.2732
      2 C          61.2432   88.7294   11.4156 C.2     1  UNL1        0.2430
      3 N          62.4709   88.0028   10.9521 N.am    1  UNL1       -0.2972
      4 H          63.3140   88.4942   10.8220 H       1  UNL1        0.1500
      5 C          61.3001   90.2046   11.6809 C.3     1  UNL1        0.1759
      6 N          62.6124   90.8603   11.9940 N.am    1  UNL1       -0.2931
      7 C          63.2440   90.6689   13.3410 C.2     1  UNL1        0.2462
      8 O          62.5632   89.8219   14.3750 O.2     1  UNL1       -0.2701
      9 H          63.0592   91.4163   11.3154 H       1  UNL1        0.1502
     10 C          64.5563   91.3246   13.6541 C.ar    1  UNL1        0.0535
     11 C          65.3129   92.0413   12.5753 C.ar    1  UNL1        0.0068
     12 C          66.6251   92.6970   12.8885 C.ar    1  UNL1        0.0298
     13 C          67.1807   92.6360   14.2804 C.ar    1  UNL1        0.1401
     14 F          68.4930   93.2917   14.5936 F       1  UNL1       -0.2042
     15 C          66.4241   91.9193   15.3593 C.ar    1  UNL1        0.0298
     16 C          65.1119   91.2636   15.0461 C.ar    1  UNL1        0.0068
     17 C          62.4141   86.5275   10.6869 C.3     1  UNL1        0.1169
     18 C          62.7388   85.5555   11.7822 C.ar    1  UNL1       -0.0003
     19 C          62.4511   84.0949   11.5983 C.ar    1  UNL1       -0.0024
     20 C          62.7758   83.1228   12.6936 C.ar    1  UNL1       -0.0003
     21 C          63.3882   83.6114   13.9728 C.ar    1  UNL1       -0.0000
     22 C          63.6758   85.0721   14.1566 C.ar    1  UNL1       -0.0003
     23 C          63.3512   86.0441   13.0613 C.ar    1  UNL1       -0.0024
     24 C          62.0326   86.0243    9.3263 C.ar    1  UNL1       -0.0003
     25 C          63.0438   85.3084    8.4806 C.ar    1  UNL1       -0.0024
     26 C          62.6622   84.8052    7.1200 C.ar    1  UNL1       -0.0003
     27 C          61.2695   85.0179    6.6051 C.ar    1  UNL1       -0.0000
     28 C          60.2584   85.7338    7.4507 C.ar    1  UNL1       -0.0003
     29 C          60.6399   86.2370    8.8113 C.ar    1  UNL1       -0.0024
@<TRIPOS>BOND
     1     1     2    2
     2     2     5    1
     3     5     6    1
     4     6     7   am
     5     7     8    2
     6     7    10    1
     7    10    11   ar
     8    11    12   ar
     9    12    13   ar
    10    13    14    1
    11    13    15   ar
    12    15    16   ar
    13     2     3   am
    14     3    17    1
    15    17    18    1
    16    18    19   ar
    17    19    20   ar
    18    20    21   ar
    19    21    22   ar
    20    22    23   ar
    21    17    24    1
    22    24    25   ar
    23    25    26   ar
    24    26    27   ar
    25    27    28   ar
    26    28    29   ar
    27    16    10   ar
    28    23    18   ar
    29    29    24   ar
    30     6     9    1
    31     3     4    1
@<TRIPOS>MOLECULE
*****
 29 31 0 0 0
SMALL
GASTEIGER

@<TRIPOS>ATOM
      1 O          59.9916   87.9478   11.6461 O.2     1  UNL1       -0.2732
      2 C          61.3030   88.6610   11.4990 C.2     1  UNL1        0.2430
      3 N          62.5189   87.9091   11.0450 N.am    1  UNL1       -0.2972
      4 H          63.3796   88.3772   10.9485 H       1  UNL1        0.1500
      5 C          61.3985   90.1261   11.8060 C.3     1  UNL1        0.1759
      6 N          62.5381   90.6469   12.6308 N.am    1  UNL1       -0.2931
      7 C          63.7305   91.2611   11.9594 C.2     1  UNL1        0.2462
      8 O          63.7835   91.3546   10.4632 O.2     1  UNL1       -0.2701
      9 H          62.5034   90.5856   13.6127 H       1  UNL1        0.1502
     10 C          64.8701   91.7819   12.7842 C.ar    1  UNL1        0.0535
     11 C          65.2951   91.0505   14.0229 C.ar    1  UNL1        0.0068
     12 C          66.4346   91.5713   14.8476 C.ar    1  UNL1        0.0298
     13 C          67.1492   92.8235   14.4336 C.ar    1  UNL1        0.1401
     14 F          68.2888   93.3443   15.2583 F       1  UNL1       -0.2042
     15 C          66.7243   93.5549   13.1949 C.ar    1  UNL1        0.0298
     16 C          65.5847   93.0341   12.3702 C.ar    1  UNL1        0.0068
     17 C          62.4234   86.4439   10.7380 C.3     1  UNL1        0.1169
     18 C          62.7300   85.4330   11.8029 C.ar    1  UNL1       -0.0003
     19 C          63.3356   85.8730   13.1027 C.ar    1  UNL1       -0.0024
     20 C          63.6423   84.8621   14.1677 C.ar    1  UNL1       -0.0003
     21 C          63.3432   83.4111   13.9327 C.ar    1  UNL1       -0.0000
     22 C          62.7376   82.9710   12.6328 C.ar    1  UNL1       -0.0003
     23 C          62.4310   83.9820   11.5680 C.ar    1  UNL1       -0.0024
     24 C          62.0214   85.9897    9.3662 C.ar    1  UNL1       -0.0003
     25 C          60.6167   86.2058    8.8863 C.ar    1  UNL1       -0.0024
     26 C          60.2146   85.7516    7.5144 C.ar    1  UNL1       -0.0003
     27 C          61.2172   85.0813    6.6224 C.ar    1  UNL1       -0.0000
     28 C          62.6218   84.8653    7.1023 C.ar    1  UNL1       -0.0003
     29 C          63.0239   85.3195    8.4742 C.ar    1  UNL1       -0.0024
@<TRIPOS>BOND
     1     1     2    2
     2     2     5    1
     3     5     6    1
     4     6     7   am
     5     7     8    2
     6     7    10    1
     7    10    11   ar
     8    11    12   ar
     9    12    13   ar
    10    13    14    1
    11    13    15   ar
    12    15    16   ar
    13     2     3   am
    14     3    17    1
    15    17    18    1
    16    18    19   ar
    17    19    20   ar
    18    20    21   ar
    19    21    22   ar
    20    22    23   ar
    21    17    24    1
    22    24    25   ar
    23    25    26   ar
    24    26    27   ar
    25    27    28   ar
    26    28    29   ar
    27    16    10   ar
    28    23    18   ar
    29    29    24   ar
    30     6     9    1
    31     3     4    1
@<TRIPOS>MOLECULE
*****
 29 31 0 0 0
SMALL
GASTEIGER

@<TRIPOS>ATOM
      1 O          61.6486   89.8260   13.7678 O.2     1  UNL1       -0.2732
      2 C          62.5070   90.2371   12.6084 C.2     1  UNL1        0.2430
      3 N          63.9836   90.4216   12.7967 N.am    1  UNL1       -0.2972
      4 H          64.5470   90.6914   12.0358 H       1  UNL1        0.1500
      5 C          61.8887   90.4638   11.2607 C.3     1  UNL1        0.1759
      6 N          61.9974   89.4099   10.1988 N.am    1  UNL1       -0.2931
      7 C          61.1750   88.1593   10.2963 C.2     1  UNL1        0.2462
      8 O          60.2438   87.9625   11.4557 O.2     1  UNL1       -0.2701
      9 H          62.6086   89.5391    9.4379 H       1  UNL1        0.1502
     10 C          61.2837   87.1055    9.2344 C.ar    1  UNL1        0.0535
     11 C          60.1034   86.7947    8.3625 C.ar    1  UNL1        0.0068
     12 C          60.2122   85.7408    7.3007 C.ar    1  UNL1        0.0298
     13 C          61.5013   84.9978    7.1107 C.ar    1  UNL1        0.1401
     14 F          61.6100   83.9439    6.0487 F       1  UNL1       -0.2042
     15 C          62.6816   85.3086    7.9825 C.ar    1  UNL1        0.0298
     16 C          62.5729   86.3624    9.0444 C.ar    1  UNL1        0.0068
     17 C          64.6019   90.1949   14.1445 C.3     1  UNL1        0.1169
     18 C          65.6483   91.1390   14.6580 C.ar    1  UNL1       -0.0003
     19 C          65.3801   91.9612   15.8835 C.ar    1  UNL1       -0.0024
     20 C          66.4264   92.9054   16.3971 C.ar    1  UNL1       -0.0003
     21 C          67.7410   93.0274   15.6850 C.ar    1  UNL1       -0.0000
     22 C          68.0092   92.2052   14.4594 C.ar    1  UNL1       -0.0003
     23 C          66.9628   91.2610   13.9459 C.ar    1  UNL1       -0.0024
     24 C          64.1739   89.0240   14.9787 C.ar    1  UNL1       -0.0003
     25 C          64.5039   87.6286   14.5381 C.ar    1  UNL1       -0.0024
     26 C          64.0758   86.4578   15.3722 C.ar    1  UNL1       -0.0003
     27 C          63.3178   86.6823   16.6470 C.ar    1  UNL1       -0.0000
     28 C          62.9878   88.0776   17.0876 C.ar    1  UNL1       -0.0003
     29 C          63.4159   89.2485   16.2534 C.ar    1  UNL1       -0.0024
@<TRIPOS>BOND
     1     1     2    2
     2     2     5    1
     3     5     6    1
     4     6     7   am
     5     7     8    2
     6     7    10    1
     7    10    11   ar
     8    11    12   ar
     9    12    13   ar
    10    13    14    1
    11    13    15   ar
    12    15    16   ar
    13     2     3   am
    14     3    17    1
    15    17    18    1
    16    18    19   ar
    17    19    20   ar
    18    20    21   ar
    19    21    22   ar
    20    22    23   ar
    21    17    24    1
    22    24    25   ar
    23    25    26   ar
    24    26    27   ar
    25    27    28   ar
    26    28    29   ar
    27    16    10   ar
    28    23    18   ar
    29    29    24   ar
    30     6     9    1
    31     3     4    1
@<TRIPOS>MOLECULE
*****
 29 31 0 0 0
SMALL
GASTEIGER

@<TRIPOS>ATOM
      1 O          61.6264   89.7951   13.7800 O.2     1  UNL1       -0.2732
      2 C          62.4797   90.2088   12.6178 C.2     1  UNL1        0.2430
      3 N          63.9565   90.3973   12.8012 N.am    1  UNL1       -0.2972
      4 H          64.5165   90.6689   12.0384 H       1  UNL1        0.1500
      5 C          61.8563   90.4340   11.2722 C.3     1  UNL1        0.1759
      6 N          61.9745   89.3856   10.2059 N.am    1  UNL1       -0.2931
      7 C          61.1534   88.1332   10.2912 C.2     1  UNL1        0.2462
      8 O          60.2142   87.9291   11.4428 O.2     1  UNL1       -0.2701
      9 H          62.5909   89.5195    9.4501 H       1  UNL1        0.1502
     10 C          61.2716   87.0848    9.2249 C.ar    1  UNL1        0.0535
     11 C          60.0934   86.7655    8.3533 C.ar    1  UNL1        0.0068
     12 C          60.2116   85.7171    7.2870 C.ar    1  UNL1        0.0298
     13 C          61.5080   84.9881    7.0924 C.ar    1  UNL1        0.1401
     14 F          61.6261   83.9397    6.0261 F       1  UNL1       -0.2042
     15 C          62.6861   85.3074    7.9641 C.ar    1  UNL1        0.0298
     16 C          62.5680   86.3557    9.0303 C.ar    1  UNL1        0.0068
     17 C          64.5800   90.1721   14.1468 C.3     1  UNL1        0.1169
     18 C          64.1596   88.9988   14.9813 C.ar    1  UNL1       -0.0003
     19 C          64.4847   87.6048   14.5330 C.ar    1  UNL1       -0.0024
     20 C          64.0643   86.4313   15.3675 C.ar    1  UNL1       -0.0003
     21 C          63.3188   86.6520   16.6503 C.ar    1  UNL1       -0.0000
     22 C          62.9936   88.0461   17.0985 C.ar    1  UNL1       -0.0003
     23 C          63.4140   89.2194   16.2640 C.ar    1  UNL1       -0.0024
     24 C          65.6239   91.1204   14.6578 C.ar    1  UNL1       -0.0003
     25 C          66.9483   91.2242   13.9612 C.ar    1  UNL1       -0.0024
     26 C          67.9922   92.1724   14.4722 C.ar    1  UNL1       -0.0003
     27 C          67.7117   93.0168   15.6799 C.ar    1  UNL1       -0.0000
     28 C          66.3874   92.9129   16.3764 C.ar    1  UNL1       -0.0003
     29 C          65.3435   91.9647   15.8654 C.ar    1  UNL1       -0.0024
@<TRIPOS>BOND
     1     1     2    2
     2     2     5    1
     3     5     6    1
     4     6     7   am
     5     7     8    2
     6     7    10    1
     7    10    11   ar
     8    11    12   ar
     9    12    13   ar
    10    13    14    1
    11    13    15   ar
    12    15    16   ar
    13     2     3   am
    14     3    17    1
    15    17    18    1
    16    18    19   ar
    17    19    20   ar
    18    20    21   ar
    19    21    22   ar
    20    22    23   ar
    21    17    24    1
    22    24    25   ar
    23    25    26   ar
    24    26    27   ar
    25    27    28   ar
    26    28    29   ar
    27    16    10   ar
    28    23    18   ar
    29    29    24   ar
    30     6     9    1
    31     3     4    1
@<TRIPOS>MOLECULE
*****
 29 31 0 0 0
SMALL
GASTEIGER

@<TRIPOS>ATOM
      1 O          64.9330   84.5598   14.0280 O.2     1  UNL1       -0.2732
      2 C          64.0358   85.7615   14.0598 C.2     1  UNL1        0.2430
      3 N          62.8730   85.8544   13.1169 N.am    1  UNL1       -0.2972
      4 H          62.2841   86.6431   13.1377 H       1  UNL1        0.1500
      5 C          64.3014   86.8702   15.0345 C.3     1  UNL1        0.1759
      6 N          64.9330   88.1470   14.5643 N.am    1  UNL1       -0.2931
      7 C          64.1397   89.4200   14.5626 C.2     1  UNL1        0.2462
      8 O          62.7147   89.4163   15.0311 O.2     1  UNL1       -0.2701
      9 H          65.8683   88.1494   14.2568 H       1  UNL1        0.1502
     10 C          64.7713   90.6967   14.0924 C.ar    1  UNL1        0.0535
     11 C          64.4608   91.2277   12.7244 C.ar    1  UNL1        0.0068
     12 C          65.0924   92.5044   12.2542 C.ar    1  UNL1        0.0298
     13 C          66.0345   93.2501   13.1522 C.ar    1  UNL1        0.1401
     14 F          66.6661   94.5269   12.6820 F       1  UNL1       -0.2042
     15 C          66.3450   92.7192   14.5202 C.ar    1  UNL1        0.0298
     16 C          65.7134   91.4425   14.9904 C.ar    1  UNL1        0.0068
     17 C          62.6073   84.7456   12.1421 C.3     1  UNL1        0.1169
     18 C          62.5474   83.3251   12.6200 C.ar    1  UNL1       -0.0003
     19 C          61.9686   83.0112   13.9677 C.ar    1  UNL1       -0.0024
     20 C          61.9086   81.5906   14.4458 C.ar    1  UNL1       -0.0003
     21 C          62.4274   80.4840   13.5760 C.ar    1  UNL1       -0.0000
     22 C          63.0062   80.7981   12.2283 C.ar    1  UNL1       -0.0003
     23 C          63.0662   82.2186   11.7503 C.ar    1  UNL1       -0.0024
     24 C          62.4017   85.0575   10.6893 C.ar    1  UNL1       -0.0003
     25 C          63.3607   84.5267    9.6652 C.ar    1  UNL1       -0.0024
     26 C          63.1550   84.8385    8.2125 C.ar    1  UNL1       -0.0003
     27 C          61.9904   85.6812    7.7838 C.ar    1  UNL1       -0.0000
     28 C          61.0315   86.2119    8.8079 C.ar    1  UNL1       -0.0003
     29 C          61.2372   85.9001   10.2606 C.ar    1  UNL1       -0.0024
@<TRIPOS>BOND
     1     1     2    2
     2     2     5    1
     3     5     6    1
     4     6     7   am
     5     7     8    2
     6     7    10    1
     7    10    11   ar
     8    11    12   ar
     9    12    13   ar
    10    13    14    1
    11    13    15   ar
    12    15    16   ar
    13     2     3   am
    14     3    17    1
    15    17    18    1
    16    18    19   ar
    17    19    20   ar
    18    20    21   ar
    19    21    22   ar
    20    22    23   ar
    21    17    24    1
    22    24    25   ar
    23    25    26   ar
    24    26    27   ar
    25    27    28   ar
    26    28    29   ar
    27    16    10   ar
    28    23    18   ar
    29    29    24   ar
    30     6     9    1
    31     3     4    1
