@<TRIPOS>MOLECULE
*****
 42 46 0 0 0
SMALL
GASTEIGER

@<TRIPOS>ATOM
      1 C          62.5063   86.7229   10.4690 C.3     1  UNL1        0.0913
      2 C          63.1606   87.0449   11.7799 C.3     1  UNL1        0.0407
      3 C          63.2503   88.4685   12.2436 C.3     1  UNL1        0.0744
      4 N          62.6856   89.5702   11.3966 N.3     1  UNL1       -0.2688
      5 C          62.0313   89.2482   10.0858 C.3     1  UNL1        0.0744
      6 C          61.9417   87.8245    9.6221 C.3     1  UNL1        0.0407
      7 C          62.4242   84.8272   12.2438 C.2     1  UNL1        0.2256
      8 O          61.5746   85.6915   13.1277 O.2     1  UNL1       -0.2748
      9 N          62.8901   85.3429   10.9146 N.am    1  UNL1       -0.3026
     10 H          63.4477   84.7756   10.3345 H       1  UNL1        0.1497
     11 N          62.9229   80.6409   11.6354 N.3     1  UNL1       -0.2726
     12 C          63.3518   80.9315   13.0430 C.3     1  UNL1        0.0729
     13 C          63.2944   82.3347   13.5701 C.3     1  UNL1        0.0301
     14 C          62.8079   83.4473   12.6894 C.3     1  UNL1        0.0902
     15 C          62.3790   83.1567   11.2817 C.3     1  UNL1        0.0301
     16 C          62.4365   81.7535   10.7547 C.3     1  UNL1        0.0729
     17 C          63.1036   84.2172   13.9424 C.ar    1  UNL1       -0.0145
     18 C          62.1554   84.1539   15.1029 C.ar    1  UNL1       -0.0038
     19 C          62.4511   84.9238   16.3559 C.ar    1  UNL1       -0.0003
     20 C          63.6950   85.7570   16.4482 C.ar    1  UNL1       -0.0000
     21 C          64.6432   85.8202   15.2876 C.ar    1  UNL1       -0.0003
     22 C          64.3475   85.0503   14.0347 C.ar    1  UNL1       -0.0038
     23 C          62.7881   78.9785    9.6434 C.3     1  UNL1        0.0188
     24 C          62.9803   79.2377   11.1083 C.3     1  UNL1        0.0721
     25 C          61.9853   85.9216    9.3129 C.2     1  UNL1        0.0664
     26 O          60.5261   85.9640    8.9681 O.co2   1  UNL1       -0.5476
     27 O          62.9234   85.0779    8.5018 O.co2   1  UNL1       -0.5476
     28 C          62.7752   90.9939   11.8604 C.3     1  UNL1        0.0992
     29 C          64.0209   91.4855   12.5362 C.ar    1  UNL1       -0.0031
     30 C          64.2445   91.2051   13.9927 C.ar    1  UNL1       -0.0027
     31 C          65.4901   91.6967   14.6685 C.ar    1  UNL1        0.0029
     32 C          66.5122   92.4688   13.8878 C.ar    1  UNL1        0.0375
     33 C          66.2885   92.7491   12.4313 C.ar    1  UNL1        0.1451
     34 C          65.0429   92.2575   11.7555 C.ar    1  UNL1        0.0346
     35 O          67.3105   93.5211   11.6506 O.3     1  UNL1       -0.4527
     36 C          66.8707   94.5433   10.6447 C.ar    1  UNL1        0.1557
     37 C          66.0114   95.6957   11.0731 C.ar    1  UNL1        0.0384
     38 C          65.5716   96.7178   10.0671 C.ar    1  UNL1        0.0032
     39 C          65.9912   96.5875    8.6329 C.ar    1  UNL1        0.0011
     40 C          66.8505   95.4351    8.2045 C.ar    1  UNL1        0.0145
     41 C          67.2903   94.4130    9.2105 C.ar    1  UNL1        0.0921
     42 CL         68.1497   93.2606    8.7822 Cl      1  UNL1       -0.0791
@<TRIPOS>UNITY_ATOM_ATTR
26 1
charge -1
@<TRIPOS>BOND
     1    23    24    1
     2    24    11    1
     3    11    12    1
     4    12    13    1
     5    13    14    1
     6    14     7    1
     7     7     8    2
     8     7     9   am
     9     9     1    1
    10     1    25    1
    11    25    26   ar
    12    25    27   ar
    13     1     2    1
    14     2     3    1
    15     3     4    1
    16     4    28    1
    17    28    29    1
    18    29    30   ar
    19    30    31   ar
    20    31    32   ar
    21    32    33   ar
    22    33    35    1
    23    35    36    1
    24    36    37   ar
    25    37    38   ar
    26    38    39   ar
    27    39    40   ar
    28    40    41   ar
    29    41    42    1
    30    33    34   ar
    31     4     5    1
    32     5     6    1
    33    14    17    1
    34    17    18   ar
    35    18    19   ar
    36    19    20   ar
    37    20    21   ar
    38    21    22   ar
    39    14    15    1
    40    15    16    1
    41    16    11    1
    42     6     1    1
    43    22    17   ar
    44    34    29   ar
    45    41    36   ar
    46     9    10    1
@<TRIPOS>MOLECULE
*****
 42 46 0 0 0
SMALL
GASTEIGER

@<TRIPOS>ATOM
      1 C          63.2294   87.1903   13.1654 C.3     1  UNL1        0.0913
      2 C          62.6236   88.5272   12.8562 C.3     1  UNL1        0.0407
      3 C          63.0291   89.7354   13.6473 C.3     1  UNL1        0.0744
      4 N          64.0403   89.6067   14.7476 N.3     1  UNL1       -0.2688
      5 C          64.6461   88.2697   15.0568 C.3     1  UNL1        0.0744
      6 C          64.2406   87.0615   14.2657 C.3     1  UNL1        0.0407
      7 C          62.2834   87.6391   10.7877 C.2     1  UNL1        0.2256
      8 O          63.1589   88.8512   10.6682 O.2     1  UNL1       -0.2748
      9 N          62.3186   86.8087   12.0363 N.am    1  UNL1       -0.3026
     10 H          61.7440   86.0131   12.1147 H       1  UNL1        0.1497
     11 N          61.2676   85.3720    7.3275 N.3     1  UNL1       -0.2726
     12 C          60.1210   86.3023    7.5919 C.3     1  UNL1        0.0729
     13 C          60.1735   87.2451    8.7574 C.3     1  UNL1        0.0301
     14 C          61.3726   87.2575    9.6585 C.3     1  UNL1        0.0902
     15 C          62.5192   86.3273    9.3942 C.3     1  UNL1        0.0301
     16 C          62.4667   85.3845    8.2286 C.3     1  UNL1        0.0729
     17 C          60.5423   88.3204   10.3151 C.ar    1  UNL1       -0.0145
     18 C          60.5809   89.7281    9.7986 C.ar    1  UNL1       -0.0038
     19 C          59.7506   90.7909   10.4552 C.ar    1  UNL1       -0.0003
     20 C          58.8817   90.4460   11.6282 C.ar    1  UNL1       -0.0000
     21 C          58.8432   89.0382   12.1447 C.ar    1  UNL1       -0.0003
     22 C          59.6734   87.9754   11.4882 C.ar    1  UNL1       -0.0038
     23 C          62.4072   84.2803    5.2637 C.3     1  UNL1        0.0188
     24 C          61.2151   84.4292    6.1620 C.3     1  UNL1        0.0721
     25 C          63.5188   85.7207   13.0825 C.2     1  UNL1        0.0664
     26 O          64.6932   85.1450   13.8169 O.co2   1  UNL1       -0.5476
     27 O          62.6339   84.8270   12.2651 O.co2   1  UNL1       -0.5476
     28 C          64.4458   90.8148   15.5387 C.3     1  UNL1        0.0992
     29 C          65.6497   91.6103   15.1288 C.ar    1  UNL1       -0.0031
     30 C          66.3946   92.4219   16.1468 C.ar    1  UNL1       -0.0027
     31 C          67.5984   93.2174   15.7369 C.ar    1  UNL1        0.0029
     32 C          68.0573   93.2013   14.3089 C.ar    1  UNL1        0.0375
     33 C          67.3124   92.3897   13.2908 C.ar    1  UNL1        0.1451
     34 C          66.1086   91.5942   13.7008 C.ar    1  UNL1        0.0346
     35 O          67.7713   92.3736   11.8629 O.3     1  UNL1       -0.4527
     36 C          67.3306   93.4549   10.9212 C.ar    1  UNL1        0.1557
     37 C          66.3552   94.4977   11.3806 C.ar    1  UNL1        0.0384
     38 C          65.9145   95.5790   10.4389 C.ar    1  UNL1        0.0032
     39 C          66.4492   95.6173    9.0380 C.ar    1  UNL1        0.0011
     40 C          67.4247   94.5745    8.5787 C.ar    1  UNL1        0.0145
     41 C          67.8654   93.4932    9.5203 C.ar    1  UNL1        0.0921
     42 CL         68.8408   92.4504    9.0611 Cl      1  UNL1       -0.0791
@<TRIPOS>UNITY_ATOM_ATTR
26 1
charge -1
@<TRIPOS>BOND
     1    23    24    1
     2    24    11    1
     3    11    12    1
     4    12    13    1
     5    13    14    1
     6    14     7    1
     7     7     8    2
     8     7     9   am
     9     9     1    1
    10     1    25    1
    11    25    26   ar
    12    25    27   ar
    13     1     2    1
    14     2     3    1
    15     3     4    1
    16     4    28    1
    17    28    29    1
    18    29    30   ar
    19    30    31   ar
    20    31    32   ar
    21    32    33   ar
    22    33    35    1
    23    35    36    1
    24    36    37   ar
    25    37    38   ar
    26    38    39   ar
    27    39    40   ar
    28    40    41   ar
    29    41    42    1
    30    33    34   ar
    31     4     5    1
    32     5     6    1
    33    14    17    1
    34    17    18   ar
    35    18    19   ar
    36    19    20   ar
    37    20    21   ar
    38    21    22   ar
    39    14    15    1
    40    15    16    1
    41    16    11    1
    42     6     1    1
    43    22    17   ar
    44    34    29   ar
    45    41    36   ar
    46     9    10    1
@<TRIPOS>MOLECULE
*****
 42 46 0 0 0
SMALL
GASTEIGER

@<TRIPOS>ATOM
      1 C          63.8787   86.1661   14.4383 C.3     1  UNL1        0.0913
      2 C          63.8515   87.0203   13.2056 C.3     1  UNL1        0.0407
      3 C          63.8076   88.5145   13.3293 C.3     1  UNL1        0.0744
      4 N          63.7908   89.1546   14.6858 N.3     1  UNL1       -0.2688
      5 C          63.8180   88.3004   15.9185 C.3     1  UNL1        0.0744
      6 C          63.8620   86.8061   15.7948 C.3     1  UNL1        0.0407
      7 C          62.6337   84.4426   12.9452 C.2     1  UNL1        0.2256
      8 O          61.3290   84.8495   13.5635 O.2     1  UNL1       -0.2748
      9 N          63.9085   85.1009   13.3826 N.am    1  UNL1       -0.3026
     10 H          64.7648   84.8338   12.9768 H       1  UNL1        0.1497
     11 N          62.8652   80.3947   11.6394 N.3     1  UNL1       -0.2726
     12 C          62.7508   81.2445   10.4087 C.3     1  UNL1        0.0729
     13 C          62.6499   82.7358   10.5336 C.3     1  UNL1        0.0301
     14 C          62.6634   83.3774   11.8895 C.3     1  UNL1        0.0902
     15 C          62.7778   82.5277   13.1203 C.3     1  UNL1        0.0301
     16 C          62.8787   81.0362   12.9952 C.3     1  UNL1        0.0729
     17 C          62.5387   84.5972   11.0254 C.ar    1  UNL1       -0.0145
     18 C          63.3459   84.7100    9.7662 C.ar    1  UNL1       -0.0038
     19 C          63.2212   85.9298    8.9020 C.ar    1  UNL1       -0.0003
     20 C          62.2892   87.0367    9.2972 C.ar    1  UNL1       -0.0000
     21 C          61.4819   86.9238   10.5564 C.ar    1  UNL1       -0.0003
     22 C          61.6067   85.7041   11.4205 C.ar    1  UNL1       -0.0038
     23 C          62.7497   78.2459   10.1836 C.3     1  UNL1        0.0188
     24 C          62.9660   78.9033   11.5144 C.3     1  UNL1        0.0721
     25 C          63.9162   84.9419   15.3044 C.2     1  UNL1        0.0664
     26 O          62.8710   84.7382   16.3608 O.co2   1  UNL1       -0.5476
     27 O          64.9991   83.9215   15.1142 O.co2   1  UNL1       -0.5476
     28 C          63.7469   90.6488   14.8095 C.3     1  UNL1        0.0992
     29 C          64.9961   91.4549   14.6101 C.ar    1  UNL1       -0.0031
     30 C          65.6329   92.1519   15.7756 C.ar    1  UNL1       -0.0027
     31 C          66.8821   92.9581   15.5763 C.ar    1  UNL1        0.0029
     32 C          67.4944   93.0671   14.2112 C.ar    1  UNL1        0.0375
     33 C          66.8576   92.3701   13.0457 C.ar    1  UNL1        0.1451
     34 C          65.6084   91.5640   13.2451 C.ar    1  UNL1        0.0346
     35 O          67.4699   92.4791   11.6807 O.3     1  UNL1       -0.4527
     36 C          67.1150   93.6324   10.7895 C.ar    1  UNL1        0.1557
     37 C          66.1877   94.7034   11.2824 C.ar    1  UNL1        0.0384
     38 C          65.8328   95.8566   10.3912 C.ar    1  UNL1        0.0032
     39 C          66.4054   95.9387    9.0072 C.ar    1  UNL1        0.0011
     40 C          67.3327   94.8677    8.5143 C.ar    1  UNL1        0.0145
     41 C          67.6876   93.7145    9.4055 C.ar    1  UNL1        0.0921
     42 CL         68.6149   92.6435    8.9127 Cl      1  UNL1       -0.0791
@<TRIPOS>UNITY_ATOM_ATTR
26 1
charge -1
@<TRIPOS>BOND
     1    23    24    1
     2    24    11    1
     3    11    12    1
     4    12    13    1
     5    13    14    1
     6    14     7    1
     7     7     8    2
     8     7     9   am
     9     9     1    1
    10     1    25    1
    11    25    26   ar
    12    25    27   ar
    13     1     2    1
    14     2     3    1
    15     3     4    1
    16     4    28    1
    17    28    29    1
    18    29    30   ar
    19    30    31   ar
    20    31    32   ar
    21    32    33   ar
    22    33    35    1
    23    35    36    1
    24    36    37   ar
    25    37    38   ar
    26    38    39   ar
    27    39    40   ar
    28    40    41   ar
    29    41    42    1
    30    33    34   ar
    31     4     5    1
    32     5     6    1
    33    14    17    1
    34    17    18   ar
    35    18    19   ar
    36    19    20   ar
    37    20    21   ar
    38    21    22   ar
    39    14    15    1
    40    15    16    1
    41    16    11    1
    42     6     1    1
    43    22    17   ar
    44    34    29   ar
    45    41    36   ar
    46     9    10    1
@<TRIPOS>MOLECULE
*****
 42 46 0 0 0
SMALL
GASTEIGER

@<TRIPOS>ATOM
      1 C          63.8815   86.2044   14.3081 C.3     1  UNL1        0.0913
      2 C          63.9799   87.2899   13.2774 C.3     1  UNL1        0.0407
      3 C          63.9529   88.7291   13.6991 C.3     1  UNL1        0.0744
      4 N          63.8275   89.0829   15.1514 N.3     1  UNL1       -0.2688
      5 C          63.7291   87.9974   16.1820 C.3     1  UNL1        0.0744
      6 C          63.7561   86.5582   15.7603 C.3     1  UNL1        0.0407
      7 C          62.7974   85.2247   12.1598 C.2     1  UNL1        0.2256
      8 O          61.5057   85.9071   12.5005 O.2     1  UNL1       -0.2748
      9 N          63.9852   85.3734   13.0636 N.am    1  UNL1       -0.3026
     10 H          64.8330   84.9255   12.8400 H       1  UNL1        0.1497
     11 N          62.8197   84.7023    7.9324 N.3     1  UNL1       -0.2726
     12 C          63.0218   83.3463    8.5409 C.3     1  UNL1        0.0729
     13 C          63.0625   83.1919   10.0323 C.3     1  UNL1        0.0301
     14 C          62.9011   84.3937   10.9154 C.3     1  UNL1        0.0902
     15 C          62.6990   85.7498   10.3070 C.3     1  UNL1        0.0301
     16 C          62.6583   85.9041    8.8154 C.3     1  UNL1        0.0729
     17 C          63.0672   83.3262   11.9560 C.ar    1  UNL1       -0.0145
     18 C          61.9152   82.9579   12.8432 C.ar    1  UNL1       -0.0038
     19 C          62.0813   81.8904   13.8839 C.ar    1  UNL1       -0.0003
     20 C          63.3995   81.1913   14.0374 C.ar    1  UNL1       -0.0000
     21 C          64.5516   81.5596   13.1501 C.ar    1  UNL1       -0.0003
     22 C          64.3854   82.6270   12.1095 C.ar    1  UNL1       -0.0038
     23 C          61.7050   84.1755    5.6455 C.3     1  UNL1        0.0188
     24 C          62.7790   84.8567    6.4409 C.3     1  UNL1        0.0721
     25 C          63.8191   84.8303   14.9065 C.2     1  UNL1        0.0664
     26 O          62.5613   84.3595   15.5745 O.co2   1  UNL1       -0.5476
     27 O          65.0146   83.9270   14.8368 O.co2   1  UNL1       -0.5476
     28 C          63.8005   90.5221   15.5731 C.3     1  UNL1        0.0992
     29 C          64.9711   91.4123   15.2775 C.ar    1  UNL1       -0.0031
     30 C          65.5490   92.2755   16.3596 C.ar    1  UNL1       -0.0027
     31 C          66.7195   93.1657   16.0641 C.ar    1  UNL1        0.0029
     32 C          67.3122   93.1927   14.6864 C.ar    1  UNL1        0.0375
     33 C          66.7343   92.3295   13.6043 C.ar    1  UNL1        0.1451
     34 C          65.5637   91.4393   13.8998 C.ar    1  UNL1        0.0346
     35 O          67.3270   92.3565   12.2266 O.3     1  UNL1       -0.4527
     36 C          67.0007   93.4833   11.2918 C.ar    1  UNL1        0.1557
     37 C          66.1951   94.6516   11.7777 C.ar    1  UNL1        0.0384
     38 C          65.8688   95.7784   10.8429 C.ar    1  UNL1        0.0032
     39 C          66.3481   95.7368    9.4221 C.ar    1  UNL1        0.0011
     40 C          67.1537   94.5686    8.9361 C.ar    1  UNL1        0.0145
     41 C          67.4800   93.4418    9.8710 C.ar    1  UNL1        0.0921
     42 CL         68.2856   92.2735    9.3851 Cl      1  UNL1       -0.0791
@<TRIPOS>UNITY_ATOM_ATTR
26 1
charge -1
@<TRIPOS>BOND
     1    23    24    1
     2    24    11    1
     3    11    12    1
     4    12    13    1
     5    13    14    1
     6    14     7    1
     7     7     8    2
     8     7     9   am
     9     9     1    1
    10     1    25    1
    11    25    26   ar
    12    25    27   ar
    13     1     2    1
    14     2     3    1
    15     3     4    1
    16     4    28    1
    17    28    29    1
    18    29    30   ar
    19    30    31   ar
    20    31    32   ar
    21    32    33   ar
    22    33    35    1
    23    35    36    1
    24    36    37   ar
    25    37    38   ar
    26    38    39   ar
    27    39    40   ar
    28    40    41   ar
    29    41    42    1
    30    33    34   ar
    31     4     5    1
    32     5     6    1
    33    14    17    1
    34    17    18   ar
    35    18    19   ar
    36    19    20   ar
    37    20    21   ar
    38    21    22   ar
    39    14    15    1
    40    15    16    1
    41    16    11    1
    42     6     1    1
    43    22    17   ar
    44    34    29   ar
    45    41    36   ar
    46     9    10    1
@<TRIPOS>MOLECULE
*****
 42 46 0 0 0
SMALL
GASTEIGER

@<TRIPOS>ATOM
      1 C          62.3709   94.2425    0.2173 C.3     1  UNL1        0.0913
      2 C          61.1504   93.3878    0.3900 C.3     1  UNL1        0.0407
      3 C          61.0228   92.4962    1.5895 C.3     1  UNL1        0.0744
      4 N          62.1157   92.4593    2.6162 N.3     1  UNL1       -0.2688
      5 C          63.3362   93.3140    2.4435 C.3     1  UNL1        0.0744
      6 C          63.4638   94.2056    1.2440 C.3     1  UNL1        0.0407
      7 C          61.7177   93.7786   -2.2541 C.2     1  UNL1        0.2256
      8 O          62.5861   92.5556   -2.2541 O.2     1  UNL1       -0.2748
      9 N          61.6101   94.6221   -1.0185 N.am    1  UNL1       -0.3026
     10 H          61.0401   95.4248   -1.0185 H       1  UNL1        0.1497
     11 N          58.2170   93.8770   -4.6790 N.3     1  UNL1       -0.2726
     12 C          59.2908   94.6037   -5.4331 C.3     1  UNL1        0.0729
     13 C          60.6608   94.7443   -4.8386 C.3     1  UNL1        0.0301
     14 C          60.9569   94.1581   -3.4899 C.3     1  UNL1        0.0902
     15 C          59.8831   93.4314   -2.7358 C.3     1  UNL1        0.0301
     16 C          58.5130   93.2909   -3.3303 C.3     1  UNL1        0.0729
     17 C          62.2950   94.7530   -3.8149 C.ar    1  UNL1       -0.0145
     18 C          63.4207   93.8681   -4.2618 C.ar    1  UNL1       -0.0038
     19 C          64.7588   94.4630   -4.5867 C.ar    1  UNL1       -0.0003
     20 C          64.9712   95.9429   -4.4647 C.ar    1  UNL1       -0.0000
     21 C          63.8455   96.8278   -4.0177 C.ar    1  UNL1       -0.0003
     22 C          62.5075   96.2329   -3.6928 C.ar    1  UNL1       -0.0038
     23 C          56.3812   92.4023   -5.7767 C.3     1  UNL1        0.0188
     24 C          56.8470   93.7364   -5.2734 C.3     1  UNL1        0.0721
     25 C          63.3272   95.2291   -0.3846 C.2     1  UNL1        0.0664
     26 O          62.9765   96.6870   -0.4213 O.co2   1  UNL1       -0.5476
     27 O          64.6342   94.7577   -0.9499 O.co2   1  UNL1       -0.5476
     28 C          61.9881   91.5676    3.8157 C.3     1  UNL1        0.0992
     29 C          60.6435   91.3374    4.4394 C.ar    1  UNL1       -0.0031
     30 C          59.4966   92.2446    4.1055 C.ar    1  UNL1       -0.0027
     31 C          58.1520   92.0145    4.7292 C.ar    1  UNL1        0.0029
     32 C          57.9543   90.8770    5.6870 C.ar    1  UNL1        0.0375
     33 C          59.1012   89.9698    6.0209 C.ar    1  UNL1        0.1451
     34 C          60.4458   90.2000    5.3971 C.ar    1  UNL1        0.0346
     35 O          58.9036   88.8324    6.9786 O.3     1  UNL1       -0.4527
     36 C          59.9158   88.5737    8.0550 C.ar    1  UNL1        0.1557
     37 C          60.4431   89.7118    8.8776 C.ar    1  UNL1        0.0384
     38 C          61.4553   89.4532    9.9540 C.ar    1  UNL1        0.0032
     39 C          61.9401   88.0565   10.2077 C.ar    1  UNL1        0.0011
     40 C          61.4128   86.9185    9.3851 C.ar    1  UNL1        0.0145
     41 C          60.4006   87.1771    8.3087 C.ar    1  UNL1        0.0921
     42 CL         59.8732   86.0391    7.4860 Cl      1  UNL1       -0.0791
@<TRIPOS>UNITY_ATOM_ATTR
26 1
charge -1
@<TRIPOS>BOND
     1    23    24    1
     2    24    11    1
     3    11    12    1
     4    12    13    1
     5    13    14    1
     6    14     7    1
     7     7     8    2
     8     7     9   am
     9     9     1    1
    10     1    25    1
    11    25    26   ar
    12    25    27   ar
    13     1     2    1
    14     2     3    1
    15     3     4    1
    16     4    28    1
    17    28    29    1
    18    29    30   ar
    19    30    31   ar
    20    31    32   ar
    21    32    33   ar
    22    33    35    1
    23    35    36    1
    24    36    37   ar
    25    37    38   ar
    26    38    39   ar
    27    39    40   ar
    28    40    41   ar
    29    41    42    1
    30    33    34   ar
    31     4     5    1
    32     5     6    1
    33    14    17    1
    34    17    18   ar
    35    18    19   ar
    36    19    20   ar
    37    20    21   ar
    38    21    22   ar
    39    14    15    1
    40    15    16    1
    41    16    11    1
    42     6     1    1
    43    22    17   ar
    44    34    29   ar
    45    41    36   ar
    46     9    10    1
@<TRIPOS>MOLECULE
*****
 42 46 0 0 0
SMALL
GASTEIGER

@<TRIPOS>ATOM
      1 C          61.7887   94.1983    0.4970 C.3     1  UNL1        0.0913
      2 C          60.4695   93.9079    1.1492 C.3     1  UNL1        0.0407
      3 C          60.4105   93.0294    2.3636 C.3     1  UNL1        0.0744
      4 N          61.6706   92.4414    2.9259 N.3     1  UNL1       -0.2688
      5 C          62.9899   92.7319    2.2737 C.3     1  UNL1        0.0744
      6 C          63.0489   93.6103    1.0593 C.3     1  UNL1        0.0407
      7 C          59.9547   94.2659   -1.3420 C.2     1  UNL1        0.2256
      8 O          59.9448   92.7666   -1.3872 O.2     1  UNL1       -0.2748
      9 N          60.8766   94.9817   -0.3999 N.am    1  UNL1       -0.3026
     10 H          60.8831   95.9658   -0.3703 H       1  UNL1        0.1497
     11 N          56.1765   95.9190   -2.4082 N.3     1  UNL1       -0.2726
     12 C          57.1433   96.3082   -3.4869 C.3     1  UNL1        0.0729
     13 C          58.5764   95.8734   -3.4024 C.3     1  UNL1        0.0301
     14 C          59.0427   95.0493   -2.2389 C.3     1  UNL1        0.0902
     15 C          58.0759   94.6600   -1.1601 C.3     1  UNL1        0.0301
     16 C          56.6428   95.0949   -1.2447 C.3     1  UNL1        0.0729
     17 C          60.3263   95.1664   -3.0062 C.ar    1  UNL1       -0.0145
     18 C          61.0034   96.4985   -3.1363 C.ar    1  UNL1       -0.0038
     19 C          62.2870   96.6156   -3.9036 C.ar    1  UNL1       -0.0003
     20 C          62.8934   95.4006   -4.5408 C.ar    1  UNL1       -0.0000
     21 C          62.2162   94.0684   -4.4107 C.ar    1  UNL1       -0.0003
     22 C          60.9327   93.9514   -3.6434 C.ar    1  UNL1       -0.0038
     23 C          53.7327   95.7960   -1.5349 C.3     1  UNL1        0.0188
     24 C          54.7434   96.3538   -2.4927 C.3     1  UNL1        0.0721
     25 C          62.7912   94.7609   -0.4667 C.2     1  UNL1        0.0664
     26 O          63.5571   93.8433   -1.3730 O.co2   1  UNL1       -0.5476
     27 O          63.0277   96.2410   -0.5240 O.co2   1  UNL1       -0.5476
     28 C          61.6117   91.5630    4.1403 C.3     1  UNL1        0.0992
     29 C          60.2852   91.1976    4.7379 C.ar    1  UNL1       -0.0031
     30 C          59.0545   91.9669    4.3591 C.ar    1  UNL1       -0.0027
     31 C          57.7281   91.6017    4.9567 C.ar    1  UNL1        0.0029
     32 C          57.6324   90.4670    5.9333 C.ar    1  UNL1        0.0375
     33 C          58.8631   89.6977    6.3121 C.ar    1  UNL1        0.1451
     34 C          60.1896   90.0631    5.7144 C.ar    1  UNL1        0.0346
     35 O          58.7675   88.5631    7.2886 O.3     1  UNL1       -0.4527
     36 C          59.8832   88.3132    8.2595 C.ar    1  UNL1        0.1557
     37 C          60.3424   89.4108    9.1730 C.ar    1  UNL1        0.0384
     38 C          61.4582   89.1608   10.1439 C.ar    1  UNL1        0.0032
     39 C          62.1146   87.8133   10.2013 C.ar    1  UNL1        0.0011
     40 C          61.6554   86.7157    9.2879 C.ar    1  UNL1        0.0145
     41 C          60.5397   86.9657    8.3169 C.ar    1  UNL1        0.0921
     42 CL         60.0804   85.8682    7.4034 Cl      1  UNL1       -0.0791
@<TRIPOS>UNITY_ATOM_ATTR
26 1
charge -1
@<TRIPOS>BOND
     1    23    24    1
     2    24    11    1
     3    11    12    1
     4    12    13    1
     5    13    14    1
     6    14     7    1
     7     7     8    2
     8     7     9   am
     9     9     1    1
    10     1    25    1
    11    25    26   ar
    12    25    27   ar
    13     1     2    1
    14     2     3    1
    15     3     4    1
    16     4    28    1
    17    28    29    1
    18    29    30   ar
    19    30    31   ar
    20    31    32   ar
    21    32    33   ar
    22    33    35    1
    23    35    36    1
    24    36    37   ar
    25    37    38   ar
    26    38    39   ar
    27    39    40   ar
    28    40    41   ar
    29    41    42    1
    30    33    34   ar
    31     4     5    1
    32     5     6    1
    33    14    17    1
    34    17    18   ar
    35    18    19   ar
    36    19    20   ar
    37    20    21   ar
    38    21    22   ar
    39    14    15    1
    40    15    16    1
    41    16    11    1
    42     6     1    1
    43    22    17   ar
    44    34    29   ar
    45    41    36   ar
    46     9    10    1
@<TRIPOS>MOLECULE
*****
 42 46 0 0 0
SMALL
GASTEIGER

@<TRIPOS>ATOM
      1 C          63.5864   86.8705   14.7995 C.3     1  UNL1        0.0913
      2 C          63.9872   87.9123   13.7975 C.3     1  UNL1        0.0407
      3 C          64.1442   89.3418   14.2239 C.3     1  UNL1        0.0744
      4 N          63.9005   89.7295   15.6523 N.3     1  UNL1       -0.2688
      5 C          63.4998   88.6876   16.6543 C.3     1  UNL1        0.0744
      6 C          63.3427   87.2581   16.2278 C.3     1  UNL1        0.0407
      7 C          62.5985   86.0030   12.5586 C.2     1  UNL1        0.2256
      8 O          61.3728   86.8401   12.7750 O.2     1  UNL1       -0.2748
      9 N          63.7053   86.0182   13.5708 N.am    1  UNL1       -0.3026
     10 H          64.5098   85.4687   13.4288 H       1  UNL1        0.1497
     11 N          63.5668   82.3892   10.5220 N.3     1  UNL1       -0.2726
     12 C          63.0763   83.3564    9.4857 C.3     1  UNL1        0.0729
     13 C          62.6515   84.7371    9.8896 C.3     1  UNL1        0.0301
     14 C          62.7174   85.1507   11.3300 C.3     1  UNL1        0.0902
     15 C          63.2079   84.1836   12.3664 C.3     1  UNL1        0.0301
     16 C          63.6326   82.8028   11.9624 C.3     1  UNL1        0.0729
     17 C          62.1855   86.4139   10.7203 C.ar    1  UNL1       -0.0145
     18 C          60.9334   86.3790    9.8952 C.ar    1  UNL1       -0.0038
     19 C          60.4015   87.6422    9.2855 C.ar    1  UNL1       -0.0003
     20 C          61.1219   88.9401    9.5010 C.ar    1  UNL1       -0.0000
     21 C          62.3741   88.9749   10.3262 C.ar    1  UNL1       -0.0003
     22 C          62.9059   87.7118   10.9358 C.ar    1  UNL1       -0.0038
     23 C          62.9775   79.9063   10.0346 C.3     1  UNL1        0.0188
     24 C          63.9915   81.0085   10.1181 C.3     1  UNL1        0.0721
     25 C          63.2270   85.5326   15.3748 C.2     1  UNL1        0.0664
     26 O          64.2482   84.4347   15.4151 O.co2   1  UNL1       -0.5476
     27 O          61.8463   85.2927   15.9096 O.co2   1  UNL1       -0.5476
     28 C          64.0576   91.1590   16.0787 C.3     1  UNL1        0.0992
     29 C          65.1731   91.9906   15.5183 C.ar    1  UNL1       -0.0031
     30 C          66.4381   92.1753   16.3028 C.ar    1  UNL1       -0.0027
     31 C          67.5536   93.0069   15.7425 C.ar    1  UNL1        0.0029
     32 C          67.4040   93.6538   14.3973 C.ar    1  UNL1        0.0375
     33 C          66.1391   93.4691   13.6128 C.ar    1  UNL1        0.1451
     34 C          65.0235   92.6375   14.1732 C.ar    1  UNL1        0.0346
     35 O          65.9895   94.1160   12.2677 O.3     1  UNL1       -0.4527
     36 C          66.8264   93.6491   11.1137 C.ar    1  UNL1        0.1557
     37 C          67.3568   92.2462   11.0912 C.ar    1  UNL1        0.0384
     38 C          68.1937   91.7792    9.9372 C.ar    1  UNL1        0.0032
     39 C          68.5002   92.7153    8.8059 C.ar    1  UNL1        0.0011
     40 C          67.9698   94.1182    8.8284 C.ar    1  UNL1        0.0145
     41 C          67.1329   94.5851    9.9824 C.ar    1  UNL1        0.0921
     42 CL         66.6025   95.9880   10.0051 Cl      1  UNL1       -0.0791
@<TRIPOS>UNITY_ATOM_ATTR
26 1
charge -1
@<TRIPOS>BOND
     1    23    24    1
     2    24    11    1
     3    11    12    1
     4    12    13    1
     5    13    14    1
     6    14     7    1
     7     7     8    2
     8     7     9   am
     9     9     1    1
    10     1    25    1
    11    25    26   ar
    12    25    27   ar
    13     1     2    1
    14     2     3    1
    15     3     4    1
    16     4    28    1
    17    28    29    1
    18    29    30   ar
    19    30    31   ar
    20    31    32   ar
    21    32    33   ar
    22    33    35    1
    23    35    36    1
    24    36    37   ar
    25    37    38   ar
    26    38    39   ar
    27    39    40   ar
    28    40    41   ar
    29    41    42    1
    30    33    34   ar
    31     4     5    1
    32     5     6    1
    33    14    17    1
    34    17    18   ar
    35    18    19   ar
    36    19    20   ar
    37    20    21   ar
    38    21    22   ar
    39    14    15    1
    40    15    16    1
    41    16    11    1
    42     6     1    1
    43    22    17   ar
    44    34    29   ar
    45    41    36   ar
    46     9    10    1
@<TRIPOS>MOLECULE
*****
 42 46 0 0 0
SMALL
GASTEIGER

@<TRIPOS>ATOM
      1 C          60.7576   89.2395   12.0626 C.3     1  UNL1        0.0913
      2 C          61.8463   89.3281   11.0345 C.3     1  UNL1        0.0407
      3 C          61.6660   88.6806    9.6935 C.3     1  UNL1        0.0744
      4 N          60.3971   87.9446    9.3806 N.3     1  UNL1       -0.2688
      5 C          59.3083   87.8560   10.4086 C.3     1  UNL1        0.0744
      6 C          59.4886   88.5034   11.7496 C.3     1  UNL1        0.0407
      7 C          63.1423   89.4839   13.0641 C.2     1  UNL1        0.2256
      8 O          63.5010   88.1243   12.5419 O.2     1  UNL1       -0.2748
      9 N          61.7706   90.0415   12.8245 N.am    1  UNL1       -0.3026
     10 H          61.5352   90.9339   13.1673 H       1  UNL1        0.1497
     11 N          65.7836   92.7904   13.5493 N.3     1  UNL1       -0.2726
     12 C          65.9012   91.9524   14.7878 C.3     1  UNL1        0.0729
     13 C          65.0871   90.7002   14.9263 C.3     1  UNL1        0.0301
     14 C          64.1554   90.2859   13.8261 C.3     1  UNL1        0.0902
     15 C          64.0377   91.1238   12.5875 C.3     1  UNL1        0.0301
     16 C          64.8519   92.3762   12.4491 C.3     1  UNL1        0.0729
     17 C          63.9212   89.1694   14.8000 C.ar    1  UNL1       -0.0145
     18 C          63.2285   89.4428   16.1021 C.ar    1  UNL1       -0.0038
     19 C          62.9943   88.3262   17.0760 C.ar    1  UNL1       -0.0003
     20 C          63.4527   86.9362   16.7478 C.ar    1  UNL1       -0.0000
     21 C          64.1454   86.6628   15.4456 C.ar    1  UNL1       -0.0003
     22 C          64.3796   87.7794   14.4718 C.ar    1  UNL1       -0.0038
     23 C          66.4332   94.9141   12.2011 C.3     1  UNL1        0.0188
     24 C          66.5977   94.0426   13.4109 C.3     1  UNL1        0.0721
     25 C          60.0207   89.4294   13.3553 C.2     1  UNL1        0.0664
     26 O          58.5297   89.2713   13.3989 O.co2   1  UNL1       -0.5476
     27 O          60.7749   89.7774   14.6043 O.co2   1  UNL1       -0.5476
     28 C          60.2168   87.2972    8.0396 C.3     1  UNL1        0.0992
     29 C          61.0664   86.1228    7.6534 C.ar    1  UNL1       -0.0031
     30 C          60.9314   85.5160    6.2883 C.ar    1  UNL1       -0.0027
     31 C          61.7810   84.3417    5.9021 C.ar    1  UNL1        0.0029
     32 C          62.7656   83.7741    6.8812 C.ar    1  UNL1        0.0375
     33 C          62.9006   84.3809    8.2463 C.ar    1  UNL1        0.1451
     34 C          62.0510   85.5552    8.6325 C.ar    1  UNL1        0.0346
     35 O          63.8851   83.8133    9.2254 O.3     1  UNL1       -0.4527
     36 C          63.4658   83.5445   10.6403 C.ar    1  UNL1        0.1557
     37 C          63.3105   84.6822   11.6054 C.ar    1  UNL1        0.0384
     38 C          62.8912   84.4134   13.0204 C.ar    1  UNL1        0.0032
     39 C          62.6272   83.0069   13.4700 C.ar    1  UNL1        0.0011
     40 C          62.7824   81.8692   12.5048 C.ar    1  UNL1        0.0145
     41 C          63.2018   82.1380   11.0899 C.ar    1  UNL1        0.0921
     42 CL         63.3571   81.0005   10.1247 Cl      1  UNL1       -0.0791
@<TRIPOS>UNITY_ATOM_ATTR
26 1
charge -1
@<TRIPOS>BOND
     1    23    24    1
     2    24    11    1
     3    11    12    1
     4    12    13    1
     5    13    14    1
     6    14     7    1
     7     7     8    2
     8     7     9   am
     9     9     1    1
    10     1    25    1
    11    25    26   ar
    12    25    27   ar
    13     1     2    1
    14     2     3    1
    15     3     4    1
    16     4    28    1
    17    28    29    1
    18    29    30   ar
    19    30    31   ar
    20    31    32   ar
    21    32    33   ar
    22    33    35    1
    23    35    36    1
    24    36    37   ar
    25    37    38   ar
    26    38    39   ar
    27    39    40   ar
    28    40    41   ar
    29    41    42    1
    30    33    34   ar
    31     4     5    1
    32     5     6    1
    33    14    17    1
    34    17    18   ar
    35    18    19   ar
    36    19    20   ar
    37    20    21   ar
    38    21    22   ar
    39    14    15    1
    40    15    16    1
    41    16    11    1
    42     6     1    1
    43    22    17   ar
    44    34    29   ar
    45    41    36   ar
    46     9    10    1
@<TRIPOS>MOLECULE
*****
 42 46 0 0 0
SMALL
GASTEIGER

@<TRIPOS>ATOM
      1 C          61.4231   89.2959   11.2418 C.3     1  UNL1        0.0913
      2 C          62.7477   88.7781   10.7649 C.3     1  UNL1        0.0407
      3 C          62.8615   87.3760   10.2445 C.3     1  UNL1        0.0744
      4 N          61.6508   86.4916   10.2009 N.3     1  UNL1       -0.2688
      5 C          60.3262   87.0094   10.6777 C.3     1  UNL1        0.0744
      6 C          60.2124   88.4116   11.1982 C.3     1  UNL1        0.0407
      7 C          63.5364   90.3888   12.2856 C.2     1  UNL1        0.2256
      8 O          63.9424   89.0612   12.8537 O.2     1  UNL1       -0.2748
      9 N          62.2768   90.5062   11.4797 N.am    1  UNL1       -0.3026
     10 H          62.0104   91.3775   11.1069 H       1  UNL1        0.1497
     11 N          65.8781   93.7005   10.9842 N.3     1  UNL1       -0.2726
     12 C          65.8884   93.7211   12.4840 C.3     1  UNL1        0.0729
     13 C          65.1444   92.6705   13.2537 C.3     1  UNL1        0.0301
     14 C          64.3901   91.5990   12.5236 C.3     1  UNL1        0.0902
     15 C          64.3798   91.5782   11.0238 C.3     1  UNL1        0.0301
     16 C          65.1238   92.6290   10.2540 C.3     1  UNL1        0.0729
     17 C          64.1039   91.1994   13.9408 C.ar    1  UNL1       -0.0145
     18 C          64.8418   91.8570   15.0691 C.ar    1  UNL1       -0.0038
     19 C          64.5555   91.4574   16.4863 C.ar    1  UNL1       -0.0003
     20 C          63.5314   90.4002   16.7752 C.ar    1  UNL1       -0.0000
     21 C          62.7935   89.7426   15.6468 C.ar    1  UNL1       -0.0003
     22 C          63.0798   90.1422   14.2297 C.ar    1  UNL1       -0.0038
     23 C          67.7300   94.3554    9.2837 C.3     1  UNL1        0.0188
     24 C          66.6221   94.7511   10.2144 C.3     1  UNL1        0.0721
     25 C          60.3950   90.2341   11.8013 C.2     1  UNL1        0.0664
     26 O          60.1816   91.5770   11.1681 O.co2   1  UNL1       -0.5476
     27 O          59.5803   89.8292   12.9939 O.co2   1  UNL1       -0.5476
     28 C          61.7646   85.0894    9.6804 C.3     1  UNL1        0.0992
     29 C          62.6461   84.0985   10.3813 C.ar    1  UNL1       -0.0031
     30 C          63.6223   83.2751    9.5946 C.ar    1  UNL1       -0.0027
     31 C          64.5038   82.2842   10.2954 C.ar    1  UNL1        0.0029
     32 C          64.4090   82.1168   11.7831 C.ar    1  UNL1        0.0375
     33 C          63.4328   82.9402   12.5698 C.ar    1  UNL1        0.1451
     34 C          62.5514   83.9311   11.8689 C.ar    1  UNL1        0.0346
     35 O          63.3381   82.7727   14.0574 O.3     1  UNL1       -0.4527
     36 C          63.3083   83.9797   14.9476 C.ar    1  UNL1        0.1557
     37 C          62.1145   84.2409   15.8173 C.ar    1  UNL1        0.0384
     38 C          62.0847   85.4479   16.7075 C.ar    1  UNL1        0.0032
     39 C          63.2489   86.3936   16.7278 C.ar    1  UNL1        0.0011
     40 C          64.4427   86.1324   15.8581 C.ar    1  UNL1        0.0145
     41 C          64.4725   84.9254   14.9679 C.ar    1  UNL1        0.0921
     42 CL         65.6663   84.6642   14.0982 Cl      1  UNL1       -0.0791
@<TRIPOS>UNITY_ATOM_ATTR
26 1
charge -1
@<TRIPOS>BOND
     1    23    24    1
     2    24    11    1
     3    11    12    1
     4    12    13    1
     5    13    14    1
     6    14     7    1
     7     7     8    2
     8     7     9   am
     9     9     1    1
    10     1    25    1
    11    25    26   ar
    12    25    27   ar
    13     1     2    1
    14     2     3    1
    15     3     4    1
    16     4    28    1
    17    28    29    1
    18    29    30   ar
    19    30    31   ar
    20    31    32   ar
    21    32    33   ar
    22    33    35    1
    23    35    36    1
    24    36    37   ar
    25    37    38   ar
    26    38    39   ar
    27    39    40   ar
    28    40    41   ar
    29    41    42    1
    30    33    34   ar
    31     4     5    1
    32     5     6    1
    33    14    17    1
    34    17    18   ar
    35    18    19   ar
    36    19    20   ar
    37    20    21   ar
    38    21    22   ar
    39    14    15    1
    40    15    16    1
    41    16    11    1
    42     6     1    1
    43    22    17   ar
    44    34    29   ar
    45    41    36   ar
    46     9    10    1
