@<TRIPOS>MOLECULE
*****
 32 36 0 0 0
SMALL
GASTEIGER

@<TRIPOS>ATOM
      1 C          60.8665   87.3445    8.5090 C.3     1  UNL1        0.0731
      2 N          61.6852   86.3699    9.3027 N.3     1  UNL1       -0.2712
      3 C          62.4394   85.1968    8.7507 C.3     1  UNL1        0.0738
      4 C          63.1138   84.4993    9.8947 C.3     1  UNL1        0.0372
      5 C          63.9967   83.3432   10.2606 C.3     1  UNL1        0.0245
      6 C          64.2049   83.3708   11.7458 C.3     1  UNL1        0.0909
      7 N          63.4507   84.5440   12.2979 N.pl3   1  UNL1       -0.3060
      8 C          62.7763   85.2415   11.1538 C.3     1  UNL1        0.0901
      9 C          61.8934   86.3976   10.7880 C.3     1  UNL1        0.0921
     10 C          63.3828   84.9487   13.7406 C.ar    1  UNL1        0.0758
     11 C          64.1121   86.1719   14.2116 C.ar    1  UNL1        0.0191
     12 C          64.0442   86.5766   15.6544 C.ar    1  UNL1        0.0311
     13 C          63.2469   85.7581   16.6262 C.ar    1  UNL1        0.1425
     14 F          63.1790   86.1628   18.0690 F       1  UNL1       -0.2041
     15 C          62.5175   84.5349   16.1552 C.ar    1  UNL1        0.0605
     16 C          62.5854   84.1302   14.7125 C.ar    1  UNL1        0.1556
     17 F          61.8561   82.9070   14.2415 F       1  UNL1       -0.2028
     18 C          60.2392   88.5254    9.1885 C.3     1  UNL1        0.0294
     19 C          61.0715   89.7276    9.5233 C.3     1  UNL1        0.0666
     20 S          61.5371   89.9488   10.9319 S.3     1  UNL1       -0.0756
     21 C          63.2220   90.0237   13.7257 C.3     1  UNL1        0.1340
     22 N          63.5470   90.7923   12.4792 N.ar    1  UNL1       -0.2872
     23 C          62.7725   90.7578   11.1951 C.ar    1  UNL1        0.1933
     24 N          63.4504   91.6745   10.2202 N.ar    1  UNL1       -0.1221
     25 N          64.6438   92.2754   10.9019 N.ar    1  UNL1       -0.1266
     26 C          64.7035   91.7302   12.2980 C.ar    1  UNL1        0.1862
     27 C          65.7381   92.0643   13.3315 C.ar    1  UNL1        0.1362
     28 C          67.1901   92.0961   12.9563 C.ar    1  UNL1        0.1211
     29 N          68.2247   92.4302   13.9897 N.ar    1  UNL1       -0.2390
     30 C          67.8072   92.7324   15.3985 C.ar    1  UNL1        0.1195
     31 C          66.3552   92.7005   15.7737 C.ar    1  UNL1        0.1196
     32 N          65.3207   92.3665   14.7401 N.ar    1  UNL1       -0.2375
@<TRIPOS>BOND
     1    21    22    1
     2    22    23   ar
     3    23    20    1
     4    20    19    1
     5    19    18    1
     6    18     1    1
     7     1     2    1
     8     2     3    1
     9     3     4    1
    10     4     5    1
    11     5     6    1
    12     6     7    1
    13     7    10    1
    14    10    11   ar
    15    11    12   ar
    16    12    13   ar
    17    13    14    1
    18    13    15   ar
    19    15    16   ar
    20    16    17    1
    21     7     8    1
    22     8     9    1
    23    23    24   ar
    24    24    25   ar
    25    25    26   ar
    26    26    27    1
    27    27    28   ar
    28    28    29   ar
    29    29    30   ar
    30    30    31   ar
    31    31    32   ar
    32    26    22   ar
    33    32    27   ar
    34     9     2    1
    35     8     4    1
    36    16    10   ar
@<TRIPOS>MOLECULE
*****
 32 36 0 0 0
SMALL
GASTEIGER

@<TRIPOS>ATOM
      1 C          64.8422   83.9191   14.6277 C.3     1  UNL1        0.0731
      2 N          64.4274   85.2873   15.0818 N.3     1  UNL1       -0.2712
      3 C          63.7073   85.6124   16.3568 C.3     1  UNL1        0.0738
      4 C          63.4948   87.0965   16.4035 C.3     1  UNL1        0.0372
      5 C          62.9183   88.2148   17.2204 C.3     1  UNL1        0.0245
      6 C          63.1509   89.4980   16.4792 C.3     1  UNL1        0.0909
      7 N          63.8710   89.1727   15.2041 N.pl3   1  UNL1       -0.3060
      8 C          64.0836   87.6886   15.1574 C.3     1  UNL1        0.0901
      9 C          64.6600   86.5704   14.3405 C.3     1  UNL1        0.0921
     10 C          64.3028   90.1586   14.1593 C.ar    1  UNL1        0.0758
     11 C          65.5084   91.0198   14.3934 C.ar    1  UNL1        0.0191
     12 C          65.9402   92.0057   13.3486 C.ar    1  UNL1        0.0311
     13 C          65.1664   92.1303   12.0697 C.ar    1  UNL1        0.1425
     14 F          65.5982   93.1161   11.0248 F       1  UNL1       -0.2041
     15 C          63.9608   91.2690   11.8355 C.ar    1  UNL1        0.0605
     16 C          63.5290   90.2832   12.8803 C.ar    1  UNL1        0.1556
     17 F          62.3235   89.4219   12.6462 F       1  UNL1       -0.2028
     18 C          63.8199   82.9697   14.0768 C.3     1  UNL1        0.0294
     19 C          63.9066   82.5203   12.6483 C.3     1  UNL1        0.0666
     20 S          64.0297   83.5337   11.5494 S.3     1  UNL1       -0.0756
     21 C          63.0476   84.8416    8.7254 C.3     1  UNL1        0.1340
     22 N          62.5299   85.1952   10.0881 N.ar    1  UNL1       -0.2872
     23 C          62.9813   84.5941   11.3862 C.ar    1  UNL1        0.1933
     24 N          62.2003   85.2393   12.4923 N.ar    1  UNL1       -0.1221
     25 N          61.2662   86.2393   11.8780 N.ar    1  UNL1       -0.1266
     26 C          61.4698   86.2121   10.3921 C.ar    1  UNL1        0.1862
     27 C          60.7414   87.0539    9.3867 C.ar    1  UNL1        0.1362
     28 C          60.9068   88.5447    9.3961 C.ar    1  UNL1        0.1211
     29 N          60.1784   89.3865    8.3908 N.ar    1  UNL1       -0.2390
     30 C          59.2845   88.7374    7.3760 C.ar    1  UNL1        0.1195
     31 C          59.1190   87.2466    7.3666 C.ar    1  UNL1        0.1196
     32 N          59.8475   86.4048    8.3720 N.ar    1  UNL1       -0.2375
@<TRIPOS>BOND
     1    21    22    1
     2    22    23   ar
     3    23    20    1
     4    20    19    1
     5    19    18    1
     6    18     1    1
     7     1     2    1
     8     2     3    1
     9     3     4    1
    10     4     5    1
    11     5     6    1
    12     6     7    1
    13     7    10    1
    14    10    11   ar
    15    11    12   ar
    16    12    13   ar
    17    13    14    1
    18    13    15   ar
    19    15    16   ar
    20    16    17    1
    21     7     8    1
    22     8     9    1
    23    23    24   ar
    24    24    25   ar
    25    25    26   ar
    26    26    27    1
    27    27    28   ar
    28    28    29   ar
    29    29    30   ar
    30    30    31   ar
    31    31    32   ar
    32    26    22   ar
    33    32    27   ar
    34     9     2    1
    35     8     4    1
    36    16    10   ar
@<TRIPOS>MOLECULE
*****
 32 36 0 0 0
SMALL
GASTEIGER

@<TRIPOS>ATOM
      1 C          62.8539   84.0334   15.5462 C.3     1  UNL1        0.0731
      2 N          63.0495   84.0344   14.0590 N.3     1  UNL1       -0.2712
      3 C          63.9451   83.1115   13.2869 C.3     1  UNL1        0.0738
      4 C          63.8329   83.4652   11.8335 C.3     1  UNL1        0.0372
      5 C          64.3171   83.1135   10.4581 C.3     1  UNL1        0.0245
      6 C          63.6515   84.0376    9.4819 C.3     1  UNL1        0.0909
      7 N          62.7559   84.9605   10.2541 N.pl3   1  UNL1       -0.3060
      8 C          62.8681   84.6068   11.7074 C.3     1  UNL1        0.0901
      9 C          62.3839   84.9585   13.0828 C.3     1  UNL1        0.0921
     10 C          61.8987   86.0465    9.6746 C.ar    1  UNL1        0.0758
     11 C          60.9562   85.7380    8.5492 C.ar    1  UNL1        0.0191
     12 C          60.0990   86.8240    7.9697 C.ar    1  UNL1        0.0311
     13 C          60.1842   88.2185    8.5156 C.ar    1  UNL1        0.1425
     14 F          59.3270   89.3044    7.9361 F       1  UNL1       -0.2041
     15 C          61.1267   88.5271    9.6410 C.ar    1  UNL1        0.0605
     16 C          61.9839   87.4411   10.2205 C.ar    1  UNL1        0.1556
     17 F          62.9263   87.7496   11.3459 F       1  UNL1       -0.2028
     18 C          62.4495   85.2945   16.2503 C.3     1  UNL1        0.0294
     19 C          63.4466   86.3984   16.4438 C.3     1  UNL1        0.0666
     20 S          63.0208   87.6920   17.0724 S.3     1  UNL1       -0.0756
     21 C          64.2295   88.0387   14.0610 C.3     1  UNL1        0.1340
     22 N          63.8684   89.1516   14.9997 N.ar    1  UNL1       -0.2872
     23 C          63.3128   88.9923   16.3838 C.ar    1  UNL1        0.1933
     24 N          63.1004   90.3614   16.9586 N.ar    1  UNL1       -0.1221
     25 N          63.5247   91.3670   15.9296 N.ar    1  UNL1       -0.1266
     26 C          63.9994   90.6193   14.7189 C.ar    1  UNL1        0.1862
     27 C          64.5146   91.2318   13.4503 C.ar    1  UNL1        0.1362
     28 C          63.7436   91.0726   12.1735 C.ar    1  UNL1        0.1211
     29 N          64.2588   91.6851   10.9048 N.ar    1  UNL1       -0.2390
     30 C          65.5451   92.4568   10.9131 C.ar    1  UNL1        0.1195
     31 C          66.3161   92.6160   12.1899 C.ar    1  UNL1        0.1196
     32 N          65.8008   92.0035   13.4585 N.ar    1  UNL1       -0.2375
@<TRIPOS>BOND
     1    21    22    1
     2    22    23   ar
     3    23    20    1
     4    20    19    1
     5    19    18    1
     6    18     1    1
     7     1     2    1
     8     2     3    1
     9     3     4    1
    10     4     5    1
    11     5     6    1
    12     6     7    1
    13     7    10    1
    14    10    11   ar
    15    11    12   ar
    16    12    13   ar
    17    13    14    1
    18    13    15   ar
    19    15    16   ar
    20    16    17    1
    21     7     8    1
    22     8     9    1
    23    23    24   ar
    24    24    25   ar
    25    25    26   ar
    26    26    27    1
    27    27    28   ar
    28    28    29   ar
    29    29    30   ar
    30    30    31   ar
    31    31    32   ar
    32    26    22   ar
    33    32    27   ar
    34     9     2    1
    35     8     4    1
    36    16    10   ar
@<TRIPOS>MOLECULE
*****
 32 36 0 0 0
SMALL
GASTEIGER

@<TRIPOS>ATOM
      1 C          61.5715   86.2878    8.1999 C.3     1  UNL1        0.0731
      2 N          62.3005   85.4565    9.2136 N.3     1  UNL1       -0.2712
      3 C          63.1068   84.2244    8.9280 C.3     1  UNL1        0.0738
      4 C          63.6558   83.7178   10.2287 C.3     1  UNL1        0.0372
      5 C          64.4934   82.6432   10.8561 C.3     1  UNL1        0.0245
      6 C          64.5440   82.8981   12.3335 C.3     1  UNL1        0.0909
      7 N          63.7376   84.1303   12.6191 N.pl3   1  UNL1       -0.3060
      8 C          63.1886   84.6369   11.3183 C.3     1  UNL1        0.0901
      9 C          62.3510   85.7115   10.6909 C.3     1  UNL1        0.0921
     10 C          63.5186   84.7475   13.9686 C.ar    1  UNL1        0.0758
     11 C          64.2753   85.9819   14.3605 C.ar    1  UNL1        0.0191
     12 C          64.0563   86.5991   15.7100 C.ar    1  UNL1        0.0311
     13 C          63.0806   85.9819   16.6676 C.ar    1  UNL1        0.1425
     14 F          62.8615   86.5991   18.0171 F       1  UNL1       -0.2041
     15 C          62.3238   84.7474   16.2757 C.ar    1  UNL1        0.0605
     16 C          62.5428   84.1302   14.9262 C.ar    1  UNL1        0.1556
     17 F          61.7860   82.8959   14.5343 F       1  UNL1       -0.2028
     18 C          60.0727   86.2616    8.1464 C.3     1  UNL1        0.0294
     19 C          59.2845   87.4493    8.6137 C.3     1  UNL1        0.0666
     20 S          59.9842   88.7400    8.9209 S.3     1  UNL1       -0.0756
     21 C          62.8848   89.7838    9.9916 C.3     1  UNL1        0.1340
     22 N          61.6607   89.5678   10.8312 N.ar    1  UNL1       -0.2872
     23 C          60.3275   89.0880   10.3390 C.ar    1  UNL1        0.1933
     24 N          59.3977   89.0172   11.5139 N.ar    1  UNL1       -0.1221
     25 N          60.1563   89.4533   12.7323 N.ar    1  UNL1       -0.1266
     26 C          61.5550   89.7936   12.3104 C.ar    1  UNL1        0.1862
     27 C          62.6547   90.2751   13.2097 C.ar    1  UNL1        0.1362
     28 C          63.6777   91.2421   12.6918 C.ar    1  UNL1        0.1211
     29 N          64.7775   91.7236   13.5911 N.ar    1  UNL1       -0.2390
     30 C          64.8541   91.2380   15.0083 C.ar    1  UNL1        0.1195
     31 C          63.8310   90.2710   15.5262 C.ar    1  UNL1        0.1196
     32 N          62.7313   89.7895   14.6268 N.ar    1  UNL1       -0.2375
@<TRIPOS>BOND
     1    21    22    1
     2    22    23   ar
     3    23    20    1
     4    20    19    1
     5    19    18    1
     6    18     1    1
     7     1     2    1
     8     2     3    1
     9     3     4    1
    10     4     5    1
    11     5     6    1
    12     6     7    1
    13     7    10    1
    14    10    11   ar
    15    11    12   ar
    16    12    13   ar
    17    13    14    1
    18    13    15   ar
    19    15    16   ar
    20    16    17    1
    21     7     8    1
    22     8     9    1
    23    23    24   ar
    24    24    25   ar
    25    25    26   ar
    26    26    27    1
    27    27    28   ar
    28    28    29   ar
    29    29    30   ar
    30    30    31   ar
    31    31    32   ar
    32    26    22   ar
    33    32    27   ar
    34     9     2    1
    35     8     4    1
    36    16    10   ar
@<TRIPOS>MOLECULE
*****
 32 36 0 0 0
SMALL
GASTEIGER

@<TRIPOS>ATOM
      1 C          59.6493   88.5897   11.1046 C.3     1  UNL1        0.0731
      2 N          60.5997   87.5574   10.5744 N.3     1  UNL1       -0.2712
      3 C          61.1963   87.5322    9.1984 C.3     1  UNL1        0.0738
      4 C          62.0856   86.3283    9.1008 C.3     1  UNL1        0.0372
      5 C          63.0040   85.5686    8.1901 C.3     1  UNL1        0.0245
      6 C          63.5247   84.3802    8.9428 C.3     1  UNL1        0.0909
      7 N          62.9280   84.4054   10.3189 N.pl3   1  UNL1       -0.3060
      8 C          62.0387   85.6094   10.4165 C.3     1  UNL1        0.0901
      9 C          61.1203   86.3690   11.3273 C.3     1  UNL1        0.0921
     10 C          63.1770   83.4027   11.4064 C.ar    1  UNL1        0.0758
     11 C          62.9500   81.9429   11.1468 C.ar    1  UNL1        0.0191
     12 C          63.1991   80.9402   12.2343 C.ar    1  UNL1        0.0311
     13 C          63.6751   81.3973   13.5813 C.ar    1  UNL1        0.1425
     14 F          63.9241   80.3946   14.6687 F       1  UNL1       -0.2041
     15 C          63.9021   82.8571   13.8409 C.ar    1  UNL1        0.0605
     16 C          63.6531   83.8599   12.7534 C.ar    1  UNL1        0.1556
     17 F          63.8801   85.3197   13.0129 F       1  UNL1       -0.2028
     18 C          60.1763   89.7922   11.8300 C.3     1  UNL1        0.0294
     19 C          61.1478   90.7116   11.1511 C.3     1  UNL1        0.0666
     20 S          62.5882   90.3149   11.0178 S.3     1  UNL1       -0.0756
     21 C          65.0560   92.4044   11.4581 C.3     1  UNL1        0.1340
     22 N          64.6290   91.3302   12.4141 N.ar    1  UNL1       -0.2872
     23 C          63.4947   90.3698   12.2117 C.ar    1  UNL1        0.1933
     24 N          63.4260   89.4738   13.4127 N.ar    1  UNL1       -0.1221
     25 N          64.5179   89.8805   14.3574 N.ar    1  UNL1       -0.1266
     26 C          65.2614   91.0278   13.7403 C.ar    1  UNL1        0.1862
     27 C          66.4317   91.7466   14.3434 C.ar    1  UNL1        0.1362
     28 C          67.7401   91.7956   13.6114 C.ar    1  UNL1        0.1211
     29 N          68.9104   92.5144   14.2145 N.ar    1  UNL1       -0.2390
     30 C          68.7723   93.1840   15.5496 C.ar    1  UNL1        0.1195
     31 C          67.4640   93.1349   16.2816 C.ar    1  UNL1        0.1196
     32 N          66.2937   92.4162   15.6785 N.ar    1  UNL1       -0.2375
@<TRIPOS>BOND
     1    21    22    1
     2    22    23   ar
     3    23    20    1
     4    20    19    1
     5    19    18    1
     6    18     1    1
     7     1     2    1
     8     2     3    1
     9     3     4    1
    10     4     5    1
    11     5     6    1
    12     6     7    1
    13     7    10    1
    14    10    11   ar
    15    11    12   ar
    16    12    13   ar
    17    13    14    1
    18    13    15   ar
    19    15    16   ar
    20    16    17    1
    21     7     8    1
    22     8     9    1
    23    23    24   ar
    24    24    25   ar
    25    25    26   ar
    26    26    27    1
    27    27    28   ar
    28    28    29   ar
    29    29    30   ar
    30    30    31   ar
    31    31    32   ar
    32    26    22   ar
    33    32    27   ar
    34     9     2    1
    35     8     4    1
    36    16    10   ar
@<TRIPOS>MOLECULE
*****
 32 36 0 0 0
SMALL
GASTEIGER

@<TRIPOS>ATOM
      1 C          64.3986   83.9289   14.7598 C.3     1  UNL1        0.0731
      2 N          64.1118   85.3472   15.1549 N.3     1  UNL1       -0.2712
      3 C          63.5991   85.8045   16.4883 C.3     1  UNL1        0.0738
      4 C          63.4578   87.2971   16.4435 C.3     1  UNL1        0.0372
      5 C          63.0536   88.5023   17.2398 C.3     1  UNL1        0.0245
      6 C          63.2292   89.7124   16.3709 C.3     1  UNL1        0.0909
      7 N          63.7419   89.2550   15.0375 N.pl3   1  UNL1       -0.3060
      8 C          63.8832   87.7624   15.0824 C.3     1  UNL1        0.0901
      9 C          64.2874   86.5572   14.2860 C.3     1  UNL1        0.0921
     10 C          64.0579   90.1357   13.8651 C.ar    1  UNL1        0.0758
     11 C          63.2736   90.0018   12.5936 C.ar    1  UNL1        0.0191
     12 C          63.5895   90.8825   11.4212 C.ar    1  UNL1        0.0311
     13 C          64.6898   91.8972   11.5203 C.ar    1  UNL1        0.1425
     14 F          65.0058   92.7779   10.3479 F       1  UNL1       -0.2041
     15 C          65.4742   92.0311   12.7919 C.ar    1  UNL1        0.0605
     16 C          65.1583   91.1504   13.9643 C.ar    1  UNL1        0.1556
     17 F          65.9426   91.2843   15.2358 F       1  UNL1       -0.2028
     18 C          63.2729   83.0155   14.3743 C.3     1  UNL1        0.0294
     19 C          63.1137   82.5821   12.9471 C.3     1  UNL1        0.0666
     20 S          64.0732   83.0716   11.9032 S.3     1  UNL1       -0.0756
     21 C          61.9817   85.5709   12.0723 C.3     1  UNL1        0.1340
     22 N          62.6104   85.0304   10.8223 N.ar    1  UNL1       -0.2872
     23 C          63.5717   83.8816   10.7446 C.ar    1  UNL1        0.1933
     24 N          63.9436   83.6849    9.3047 N.ar    1  UNL1       -0.1221
     25 N          63.2121   84.7122    8.4926 N.ar    1  UNL1       -0.1266
     26 C          62.3881   85.5438    9.4305 C.ar    1  UNL1        0.1862
     27 C          61.4981   86.6878    9.0443 C.ar    1  UNL1        0.1362
     28 C          60.3711   86.4686    8.0790 C.ar    1  UNL1        0.1211
     29 N          59.4811   87.6127    7.6929 N.ar    1  UNL1       -0.2390
     30 C          59.7182   88.9759    8.2721 C.ar    1  UNL1        0.1195
     31 C          60.8452   89.1951    9.2374 C.ar    1  UNL1        0.1196
     32 N          61.7351   88.0510    9.6235 N.ar    1  UNL1       -0.2375
@<TRIPOS>BOND
     1    21    22    1
     2    22    23   ar
     3    23    20    1
     4    20    19    1
     5    19    18    1
     6    18     1    1
     7     1     2    1
     8     2     3    1
     9     3     4    1
    10     4     5    1
    11     5     6    1
    12     6     7    1
    13     7    10    1
    14    10    11   ar
    15    11    12   ar
    16    12    13   ar
    17    13    14    1
    18    13    15   ar
    19    15    16   ar
    20    16    17    1
    21     7     8    1
    22     8     9    1
    23    23    24   ar
    24    24    25   ar
    25    25    26   ar
    26    26    27    1
    27    27    28   ar
    28    28    29   ar
    29    29    30   ar
    30    30    31   ar
    31    31    32   ar
    32    26    22   ar
    33    32    27   ar
    34     9     2    1
    35     8     4    1
    36    16    10   ar
@<TRIPOS>MOLECULE
*****
 32 36 0 0 0
SMALL
GASTEIGER

@<TRIPOS>ATOM
      1 C          59.8778   88.6666   10.7044 C.3     1  UNL1        0.0731
      2 N          60.7911   87.5587   10.2702 N.3     1  UNL1       -0.2712
      3 C          61.4501   87.4341    8.9285 C.3     1  UNL1        0.0738
      4 C          62.2720   86.1793    8.9306 C.3     1  UNL1        0.0372
      5 C          63.1873   85.3268    8.1027 C.3     1  UNL1        0.0245
      6 C          63.6019   84.1490    8.9340 C.3     1  UNL1        0.0909
      7 N          62.9428   84.2737   10.2757 N.pl3   1  UNL1       -0.3060
      8 C          62.1209   85.5284   10.2736 C.3     1  UNL1        0.0901
      9 C          61.2056   86.3810   11.1015 C.3     1  UNL1        0.0921
     10 C          63.0814   83.3123   11.4188 C.ar    1  UNL1        0.0758
     11 C          62.8439   81.8475   11.1998 C.ar    1  UNL1        0.0191
     12 C          62.9824   80.8862   12.3429 C.ar    1  UNL1        0.0311
     13 C          63.3584   81.3896   13.7049 C.ar    1  UNL1        0.1425
     14 F          63.4970   80.4282   14.8480 F       1  UNL1       -0.2041
     15 C          63.5959   82.8545   13.9239 C.ar    1  UNL1        0.0605
     16 C          63.4574   83.8158   12.7809 C.ar    1  UNL1        0.1556
     17 F          63.6948   85.2806   12.9998 F       1  UNL1       -0.2028
     18 C          60.4432   90.0113   11.0535 C.3     1  UNL1        0.0294
     19 C          61.0671   90.2365   12.3989 C.3     1  UNL1        0.0666
     20 S          62.4856   89.8169   12.6474 S.3     1  UNL1       -0.0756
     21 C          63.6984   91.3947   10.0611 C.3     1  UNL1        0.1340
     22 N          64.1354   91.5698   11.4854 N.ar    1  UNL1       -0.2872
     23 C          63.5779   90.8445   12.6741 C.ar    1  UNL1        0.1933
     24 N          64.3046   91.3273   13.8944 N.ar    1  UNL1       -0.1221
     25 N          65.3112   92.3509   13.4597 N.ar    1  UNL1       -0.1266
     26 C          65.2067   92.5008   11.9709 C.ar    1  UNL1        0.1862
     27 C          66.0290   93.4203   11.1174 C.ar    1  UNL1        0.1362
     28 C          67.1856   92.8791   10.3305 C.ar    1  UNL1        0.1211
     29 N          68.0079   93.7985    9.4770 N.ar    1  UNL1       -0.2390
     30 C          67.6734   95.2593    9.4105 C.ar    1  UNL1        0.1195
     31 C          66.5168   95.8006   10.1974 C.ar    1  UNL1        0.1196
     32 N          65.6946   94.8810   11.0509 N.ar    1  UNL1       -0.2375
@<TRIPOS>BOND
     1    21    22    1
     2    22    23   ar
     3    23    20    1
     4    20    19    1
     5    19    18    1
     6    18     1    1
     7     1     2    1
     8     2     3    1
     9     3     4    1
    10     4     5    1
    11     5     6    1
    12     6     7    1
    13     7    10    1
    14    10    11   ar
    15    11    12   ar
    16    12    13   ar
    17    13    14    1
    18    13    15   ar
    19    15    16   ar
    20    16    17    1
    21     7     8    1
    22     8     9    1
    23    23    24   ar
    24    24    25   ar
    25    25    26   ar
    26    26    27    1
    27    27    28   ar
    28    28    29   ar
    29    29    30   ar
    30    30    31   ar
    31    31    32   ar
    32    26    22   ar
    33    32    27   ar
    34     9     2    1
    35     8     4    1
    36    16    10   ar
@<TRIPOS>MOLECULE
*****
 32 36 0 0 0
SMALL
GASTEIGER

@<TRIPOS>ATOM
      1 C          62.0944   89.7141   11.4355 C.3     1  UNL1        0.0731
      2 N          63.2213   90.5556   11.9569 N.3     1  UNL1       -0.2712
      3 C          63.8003   90.4952   13.3393 C.3     1  UNL1        0.0738
      4 C          64.9039   91.5076   13.4241 C.3     1  UNL1        0.0372
      5 C          65.9439   92.0960   14.3309 C.3     1  UNL1        0.0245
      6 C          66.6897   93.1456   13.5615 C.3     1  UNL1        0.0909
      7 N          66.1106   93.2060   12.1790 N.pl3   1  UNL1       -0.3060
      8 C          65.0070   92.1936   12.0942 C.3     1  UNL1        0.0901
      9 C          63.9670   91.6052   11.1873 C.3     1  UNL1        0.0921
     10 C          66.5568   94.1185   11.0753 C.ar    1  UNL1        0.0758
     11 C          66.3023   95.5935   11.1726 C.ar    1  UNL1        0.0191
     12 C          66.7486   96.5060   10.0688 C.ar    1  UNL1        0.0311
     13 C          67.4492   95.9434    8.8678 C.ar    1  UNL1        0.1425
     14 F          67.8954   96.8559    7.7640 F       1  UNL1       -0.2041
     15 C          67.7037   94.4683    8.7704 C.ar    1  UNL1        0.0605
     16 C          67.2575   93.5558    9.8742 C.ar    1  UNL1        0.1556
     17 F          67.5119   92.0808    9.7768 F       1  UNL1       -0.2028
     18 C          62.1239   89.2136   10.0217 C.3     1  UNL1        0.0294
     19 C          60.8908   88.6155    9.4119 C.3     1  UNL1        0.0666
     20 S          60.9932   87.3707    8.5812 S.3     1  UNL1       -0.0756
     21 C          61.1499   86.2183   11.6303 C.3     1  UNL1        0.1340
     22 N          61.9134   85.6954   10.4498 N.ar    1  UNL1       -0.2872
     23 C          61.8414   86.2251    9.0483 C.ar    1  UNL1        0.1933
     24 N          62.7664   85.4081    8.1958 N.ar    1  UNL1       -0.1221
     25 N          63.4102   84.3734    9.0704 N.ar    1  UNL1       -0.1266
     26 C          62.8830   84.5509   10.4635 C.ar    1  UNL1        0.1862
     27 C          63.2594   83.7284   11.6601 C.ar    1  UNL1        0.1362
     28 C          63.8465   84.3910   12.8710 C.ar    1  UNL1        0.1211
     29 N          64.2228   83.5685   14.0676 N.ar    1  UNL1       -0.2390
     30 C          64.0120   82.0834   14.0532 C.ar    1  UNL1        0.1195
     31 C          63.4250   81.4208   12.8423 C.ar    1  UNL1        0.1196
     32 N          63.0486   82.2434   11.6457 N.ar    1  UNL1       -0.2375
@<TRIPOS>BOND
     1    21    22    1
     2    22    23   ar
     3    23    20    1
     4    20    19    1
     5    19    18    1
     6    18     1    1
     7     1     2    1
     8     2     3    1
     9     3     4    1
    10     4     5    1
    11     5     6    1
    12     6     7    1
    13     7    10    1
    14    10    11   ar
    15    11    12   ar
    16    12    13   ar
    17    13    14    1
    18    13    15   ar
    19    15    16   ar
    20    16    17    1
    21     7     8    1
    22     8     9    1
    23    23    24   ar
    24    24    25   ar
    25    25    26   ar
    26    26    27    1
    27    27    28   ar
    28    28    29   ar
    29    29    30   ar
    30    30    31   ar
    31    31    32   ar
    32    26    22   ar
    33    32    27   ar
    34     9     2    1
    35     8     4    1
    36    16    10   ar
@<TRIPOS>MOLECULE
*****
 32 36 0 0 0
SMALL
GASTEIGER

@<TRIPOS>ATOM
      1 C          61.8162   90.0703   12.8952 C.3     1  UNL1        0.0731
      2 N          63.1903   90.6412   13.0850 N.3     1  UNL1       -0.2712
      3 C          64.1124   90.3566   14.2334 C.3     1  UNL1        0.0738
      4 C          65.3755   91.1364   14.0179 C.3     1  UNL1        0.0372
      5 C          66.7260   91.4425   14.5945 C.3     1  UNL1        0.0245
      6 C          67.4193   92.3982   13.6692 C.3     1  UNL1        0.0909
      7 N          66.4972   92.6827   12.5208 N.pl3   1  UNL1       -0.3060
      8 C          65.2341   91.9029   12.7363 C.3     1  UNL1        0.0901
      9 C          63.8836   91.5969   12.1598 C.3     1  UNL1        0.0921
     10 C          66.7873   93.5881   11.3606 C.ar    1  UNL1        0.0758
     11 C          66.3207   95.0134   11.3865 C.ar    1  UNL1        0.0191
     12 C          66.6108   95.9188   10.2263 C.ar    1  UNL1        0.0311
     13 C          67.3676   95.3989    9.0401 C.ar    1  UNL1        0.1425
     14 F          67.6577   96.3043    7.8799 F       1  UNL1       -0.2041
     15 C          67.8342   93.9735    9.0142 C.ar    1  UNL1        0.0605
     16 C          67.5441   93.0681   10.1744 C.ar    1  UNL1        0.1556
     17 F          68.0107   91.6428   10.1484 F       1  UNL1       -0.2028
     18 C          61.1630   90.1208   11.5459 C.3     1  UNL1        0.0294
     19 C          61.1416   88.8984   10.6767 C.3     1  UNL1        0.0666
     20 S          62.3777   88.0618   10.5284 S.3     1  UNL1       -0.0756
     21 C          61.7157   84.8828   10.2043 C.3     1  UNL1        0.1340
     22 N          62.3790   85.5295   11.3841 N.ar    1  UNL1       -0.2872
     23 C          62.6833   86.9907   11.5331 C.ar    1  UNL1        0.1933
     24 N          63.3467   87.1928   12.8631 N.ar    1  UNL1       -0.1221
     25 N          63.4525   85.8564   13.5361 N.ar    1  UNL1       -0.1266
     26 C          62.8544   84.8284   12.6221 C.ar    1  UNL1        0.1862
     27 C          62.7500   83.3576   12.8976 C.ar    1  UNL1        0.1362
     28 C          62.3650   82.8762   14.2651 C.ar    1  UNL1        0.1211
     29 N          62.2606   81.4054   14.5406 N.ar    1  UNL1       -0.2390
     30 C          62.5413   80.4161   13.4485 C.ar    1  UNL1        0.1195
     31 C          62.9264   80.8975   12.0811 C.ar    1  UNL1        0.1196
     32 N          63.0307   82.3683   11.8056 N.ar    1  UNL1       -0.2375
@<TRIPOS>BOND
     1    21    22    1
     2    22    23   ar
     3    23    20    1
     4    20    19    1
     5    19    18    1
     6    18     1    1
     7     1     2    1
     8     2     3    1
     9     3     4    1
    10     4     5    1
    11     5     6    1
    12     6     7    1
    13     7    10    1
    14    10    11   ar
    15    11    12   ar
    16    12    13   ar
    17    13    14    1
    18    13    15   ar
    19    15    16   ar
    20    16    17    1
    21     7     8    1
    22     8     9    1
    23    23    24   ar
    24    24    25   ar
    25    25    26   ar
    26    26    27    1
    27    27    28   ar
    28    28    29   ar
    29    29    30   ar
    30    30    31   ar
    31    31    32   ar
    32    26    22   ar
    33    32    27   ar
    34     9     2    1
    35     8     4    1
    36    16    10   ar
