@<TRIPOS>MOLECULE
*****
 27 30 0 0 0
SMALL
GASTEIGER

@<TRIPOS>ATOM
      1 C          63.9840   88.9275   14.9885 C.ar    1  UNL1        0.0139
      2 C          63.1405   89.2496   16.1864 C.ar    1  UNL1        0.0061
      3 C          62.7351   88.1592   17.1333 C.ar    1  UNL1        0.0608
      4 C          63.1732   86.7467   16.8825 C.ar    1  UNL1        0.2612
      5 O          62.7679   85.6564   17.8295 O.2     1  UNL1       -0.2670
      6 N          64.0168   86.4246   15.6847 N.ar    1  UNL1       -0.2900
      7 C          64.4221   87.5150   14.7377 C.ar    1  UNL1        0.0783
      8 N          65.3802   93.8994   10.0934 N.pl3   1  UNL1       -0.2443
      9 C          65.8297   93.3445   11.4125 C.2     1  UNL1        0.3462
     10 N          66.9879   93.8380   12.2281 N.2     1  UNL1        0.0797
     11 N          67.0739   92.9971   13.4672 N.2     1  UNL1       -0.0381
     12 C          65.9689   91.9839   13.4175 C.2     1  UNL1        0.1169
     13 C          65.5636   90.8935   14.3645 C.3     1  UNL1        0.0763
     14 C          64.3894   90.0179   14.0416 C.2     1  UNL1       -0.0146
     15 C          63.6204   90.2326   12.7716 C.2     1  UNL1       -0.0035
     16 C          64.0258   91.3229   11.8247 C.2     1  UNL1        0.0085
     17 C          65.2000   92.1986   12.1476 C.2     1  UNL1        0.1018
     18 H          65.8608   94.6574    9.6888 H       1  UNL1        0.2885
     19 H          64.6047   93.5056    9.6323 H       1  UNL1        0.2885
     20 C          64.4549   85.0121   15.4339 C.3     1  UNL1        0.1358
     21 C          63.7486   84.1792   14.4056 C.ar    1  UNL1        0.0013
     22 C          63.9248   84.4801   12.9467 C.ar    1  UNL1       -0.0023
     23 C          63.2185   83.6472   11.9185 C.ar    1  UNL1        0.0006
     24 C          62.3361   82.5132   12.3490 C.ar    1  UNL1        0.0114
     25 C          62.1599   82.2123   13.8079 C.ar    1  UNL1        0.0574
     26 CL         61.2775   81.0783   14.2386 Cl      1  UNL1       -0.0823
     27 C          62.8662   83.0452   14.8362 C.ar    1  UNL1        0.0090
@<TRIPOS>BOND
     1     8     9    1
     2     9    10    2
     3    10    11    1
     4    11    12    2
     5    12    13    1
     6    13    14    1
     7    14     1    1
     8     1     2   ar
     9     2     3   ar
    10     3     4   ar
    11     4     5    2
    12     4     6   ar
    13     6    20    1
    14    20    21    1
    15    21    22   ar
    16    22    23   ar
    17    23    24   ar
    18    24    25   ar
    19    25    26    1
    20    25    27   ar
    21     6     7   ar
    22    14    15    2
    23    15    16    1
    24    16    17    2
    25    17     9    1
    26    17    12    1
    27     7     1   ar
    28    27    21   ar
    29     8    18    1
    30     8    19    1
@<TRIPOS>MOLECULE
*****
 27 30 0 0 0
SMALL
GASTEIGER

@<TRIPOS>ATOM
      1 C          63.4449   90.0468   12.1517 C.ar    1  UNL1        0.0139
      2 C          63.6952   89.3207   13.4401 C.ar    1  UNL1        0.0061
      3 C          64.6537   89.8861   14.4457 C.ar    1  UNL1        0.0608
      4 C          65.3620   91.1779   14.1630 C.ar    1  UNL1        0.2612
      5 O          66.3205   91.7434   15.1687 O.2     1  UNL1       -0.2670
      6 N          65.1117   91.9041   12.8746 N.ar    1  UNL1       -0.2900
      7 C          64.1531   91.3385   11.8689 C.ar    1  UNL1        0.0783
      8 N          58.6598   88.0091    7.2955 N.pl3   1  UNL1       -0.2443
      9 C          59.7486   87.5122    8.1997 C.2     1  UNL1        0.3462
     10 N          60.2080   86.0900    8.3277 N.2     1  UNL1        0.0797
     11 N          61.3125   86.0492    9.3417 N.2     1  UNL1       -0.0381
     12 C          61.5358   87.4462    9.8405 C.2     1  UNL1        0.1169
     13 C          62.4943   88.0116   10.8461 C.3     1  UNL1        0.0763
     14 C          62.4863   89.4813   11.1460 C.2     1  UNL1       -0.0146
     15 C          61.5197   90.3855   10.4402 C.2     1  UNL1       -0.0035
     16 C          60.5612   89.8200    9.4345 C.2     1  UNL1        0.0085
     17 C          60.5692   88.3504    9.1347 C.2     1  UNL1        0.1018
     18 H          58.1755   87.3781    6.7153 H       1  UNL1        0.2885
     19 H          58.4293   88.9662    7.2823 H       1  UNL1        0.2885
     20 C          65.8199   93.1957   12.5919 C.3     1  UNL1        0.1358
     21 C          66.6337   93.3467   11.3410 C.ar    1  UNL1        0.0013
     22 C          67.4718   92.2041   10.8490 C.ar    1  UNL1       -0.0023
     23 C          68.2856   92.3550    9.5981 C.ar    1  UNL1        0.0006
     24 C          68.2614   93.6485    8.8391 C.ar    1  UNL1        0.0114
     25 C          67.4234   94.7911    9.3310 C.ar    1  UNL1        0.0574
     26 CL         67.3992   96.0848    8.5721 Cl      1  UNL1       -0.0823
     27 C          66.6096   94.6402   10.5820 C.ar    1  UNL1        0.0090
@<TRIPOS>BOND
     1     8     9    1
     2     9    10    2
     3    10    11    1
     4    11    12    2
     5    12    13    1
     6    13    14    1
     7    14     1    1
     8     1     2   ar
     9     2     3   ar
    10     3     4   ar
    11     4     5    2
    12     4     6   ar
    13     6    20    1
    14    20    21    1
    15    21    22   ar
    16    22    23   ar
    17    23    24   ar
    18    24    25   ar
    19    25    26    1
    20    25    27   ar
    21     6     7   ar
    22    14    15    2
    23    15    16    1
    24    16    17    2
    25    17     9    1
    26    17    12    1
    27     7     1   ar
    28    27    21   ar
    29     8    18    1
    30     8    19    1
@<TRIPOS>MOLECULE
*****
 27 30 0 0 0
SMALL
GASTEIGER

@<TRIPOS>ATOM
      1 C          62.7422   89.6108   11.3620 C.ar    1  UNL1        0.0139
      2 C          62.0558   90.3423   10.2468 C.ar    1  UNL1        0.0061
      3 C          61.1022   89.6137    9.3470 C.ar    1  UNL1        0.0608
      4 C          60.8349   88.1535    9.5624 C.ar    1  UNL1        0.2612
      5 O          59.8813   87.4248    8.6626 O.2     1  UNL1       -0.2670
      6 N          61.5213   87.4219   10.6776 N.ar    1  UNL1       -0.2900
      7 C          62.4750   88.1506   11.5775 C.ar    1  UNL1        0.0783
      8 N          67.1529   92.5688   16.0979 N.pl3   1  UNL1       -0.2443
      9 C          66.5773   92.7268   14.7218 C.2     1  UNL1        0.3462
     10 N          66.8748   93.8425   13.7644 N.2     1  UNL1        0.0797
     11 N          66.0845   93.6020   12.5123 N.2     1  UNL1       -0.0381
     12 C          65.2986   92.3376   12.6959 C.2     1  UNL1        0.1169
     13 C          64.3450   91.6090   11.7961 C.3     1  UNL1        0.0763
     14 C          63.6959   90.3395   12.2618 C.2     1  UNL1       -0.0146
     15 C          64.0005   89.7985   13.6274 C.2     1  UNL1       -0.0035
     16 C          64.9541   90.5272   14.5272 C.2     1  UNL1        0.0085
     17 C          65.6031   91.7967   14.0614 C.2     1  UNL1        0.1018
     18 H          67.7885   93.2356   16.4451 H       1  UNL1        0.2885
     19 H          66.8950   91.7983   16.6539 H       1  UNL1        0.2885
     20 C          61.2541   85.9617   10.8931 C.3     1  UNL1        0.1358
     21 C          62.3924   85.0227   11.1623 C.ar    1  UNL1        0.0013
     22 C          63.0737   84.3240   10.0232 C.ar    1  UNL1       -0.0023
     23 C          64.2120   83.3850   10.2925 C.ar    1  UNL1        0.0006
     24 C          64.6689   83.1445   11.7008 C.ar    1  UNL1        0.0114
     25 C          63.9875   83.8432   12.8399 C.ar    1  UNL1        0.0574
     26 CL         64.4444   83.6028   14.2483 Cl      1  UNL1       -0.0823
     27 C          62.8493   84.7823   12.5706 C.ar    1  UNL1        0.0090
@<TRIPOS>BOND
     1     8     9    1
     2     9    10    2
     3    10    11    1
     4    11    12    2
     5    12    13    1
     6    13    14    1
     7    14     1    1
     8     1     2   ar
     9     2     3   ar
    10     3     4   ar
    11     4     5    2
    12     4     6   ar
    13     6    20    1
    14    20    21    1
    15    21    22   ar
    16    22    23   ar
    17    23    24   ar
    18    24    25   ar
    19    25    26    1
    20    25    27   ar
    21     6     7   ar
    22    14    15    2
    23    15    16    1
    24    16    17    2
    25    17     9    1
    26    17    12    1
    27     7     1   ar
    28    27    21   ar
    29     8    18    1
    30     8    19    1
@<TRIPOS>MOLECULE
*****
 27 30 0 0 0
SMALL
GASTEIGER

@<TRIPOS>ATOM
      1 C          62.1415   89.5624   10.4581 C.ar    1  UNL1        0.0139
      2 C          60.7995   90.1084   10.0697 C.ar    1  UNL1        0.0061
      3 C          59.8336   89.2517    9.3061 C.ar    1  UNL1        0.0608
      4 C          60.2097   87.8489    8.9310 C.ar    1  UNL1        0.2612
      5 O          59.2438   86.9922    8.1674 O.2     1  UNL1       -0.2670
      6 N          61.5516   87.3028    9.3194 N.ar    1  UNL1       -0.2900
      7 C          62.5176   88.1596   10.0830 C.ar    1  UNL1        0.0783
      8 N          66.8989   93.9107   13.4733 N.pl3   1  UNL1       -0.2443
      9 C          65.8950   92.8340   13.7615 C.2     1  UNL1        0.3462
     10 N          65.5709   92.2696   15.1129 N.2     1  UNL1        0.0797
     11 N          64.5146   91.2195   14.9354 N.2     1  UNL1       -0.0381
     12 C          64.1860   91.1348   13.4743 C.2     1  UNL1        0.1169
     13 C          63.2201   90.2781   12.7108 C.3     1  UNL1        0.0763
     14 C          63.1074   90.4192   11.2217 C.2     1  UNL1       -0.0146
     15 C          63.9606   91.4170   10.4962 C.2     1  UNL1       -0.0035
     16 C          64.9264   92.2738   11.2597 C.2     1  UNL1        0.0085
     17 C          65.0391   92.1327   12.7488 C.2     1  UNL1        0.1018
     18 H          67.4151   94.3121   14.2092 H       1  UNL1        0.2885
     19 H          67.0415   94.2159   12.5483 H       1  UNL1        0.2885
     20 C          61.9277   85.9001    8.9443 C.3     1  UNL1        0.1358
     21 C          62.6114   85.0142    9.9432 C.ar    1  UNL1        0.0013
     22 C          63.6372   84.0201    9.4858 C.ar    1  UNL1       -0.0023
     23 C          64.3209   83.1342   10.4847 C.ar    1  UNL1        0.0006
     24 C          63.9787   83.2426   11.9411 C.ar    1  UNL1        0.0114
     25 C          62.9530   84.2368   12.3986 C.ar    1  UNL1        0.0574
     26 CL         62.6108   84.3452   13.8551 Cl      1  UNL1       -0.0823
     27 C          62.2693   85.1226   11.3996 C.ar    1  UNL1        0.0090
@<TRIPOS>BOND
     1     8     9    1
     2     9    10    2
     3    10    11    1
     4    11    12    2
     5    12    13    1
     6    13    14    1
     7    14     1    1
     8     1     2   ar
     9     2     3   ar
    10     3     4   ar
    11     4     5    2
    12     4     6   ar
    13     6    20    1
    14    20    21    1
    15    21    22   ar
    16    22    23   ar
    17    23    24   ar
    18    24    25   ar
    19    25    26    1
    20    25    27   ar
    21     6     7   ar
    22    14    15    2
    23    15    16    1
    24    16    17    2
    25    17     9    1
    26    17    12    1
    27     7     1   ar
    28    27    21   ar
    29     8    18    1
    30     8    19    1
@<TRIPOS>MOLECULE
*****
 27 30 0 0 0
SMALL
GASTEIGER

@<TRIPOS>ATOM
      1 C          63.4374   89.6842   12.1886 C.ar    1  UNL1        0.0139
      2 C          63.8158   88.9483   13.4398 C.ar    1  UNL1        0.0061
      3 C          64.7102   89.6004   14.4520 C.ar    1  UNL1        0.0608
      4 C          65.2263   90.9885   14.2132 C.ar    1  UNL1        0.2612
      5 O          66.1207   91.6406   15.2255 O.2     1  UNL1       -0.2670
      6 N          64.8479   91.7244   12.9621 N.ar    1  UNL1       -0.2900
      7 C          63.9535   91.0722   11.9498 C.ar    1  UNL1        0.0783
      8 N          59.3949   85.9824    7.6514 N.pl3   1  UNL1       -0.2443
      9 C          59.7981   87.3703    8.0526 C.2     1  UNL1        0.3462
     10 N          59.3161   88.6446    7.4251 N.2     1  UNL1        0.0797
     11 N          59.9743   89.7895    8.1365 N.2     1  UNL1       -0.0381
     12 C          60.8631   89.2227    9.2037 C.2     1  UNL1        0.1169
     13 C          61.7575   89.8749   10.2159 C.3     1  UNL1        0.0763
     14 C          62.5430   89.0320   11.1763 C.2     1  UNL1       -0.0146
     15 C          62.4341   87.5368   11.1245 C.2     1  UNL1       -0.0035
     16 C          61.5397   86.8846   10.1123 C.2     1  UNL1        0.0085
     17 C          60.7542   87.7276    9.1519 C.2     1  UNL1        0.1018
     18 H          58.7573   85.8490    6.9132 H       1  UNL1        0.2885
     19 H          59.7677   85.2048    8.1263 H       1  UNL1        0.2885
     20 C          65.3640   93.1124   12.7232 C.3     1  UNL1        0.1358
     21 C          66.0747   93.4384   11.4432 C.ar    1  UNL1        0.0013
     22 C          65.8180   94.7462   10.7549 C.ar    1  UNL1       -0.0023
     23 C          66.5287   95.0722    9.4748 C.ar    1  UNL1        0.0006
     24 C          67.4961   94.0904    8.8830 C.ar    1  UNL1        0.0114
     25 C          67.7527   92.7826    9.5713 C.ar    1  UNL1        0.0574
     26 CL         68.7201   91.8008    8.9795 Cl      1  UNL1       -0.0823
     27 C          67.0420   92.4566   10.8514 C.ar    1  UNL1        0.0090
@<TRIPOS>BOND
     1     8     9    1
     2     9    10    2
     3    10    11    1
     4    11    12    2
     5    12    13    1
     6    13    14    1
     7    14     1    1
     8     1     2   ar
     9     2     3   ar
    10     3     4   ar
    11     4     5    2
    12     4     6   ar
    13     6    20    1
    14    20    21    1
    15    21    22   ar
    16    22    23   ar
    17    23    24   ar
    18    24    25   ar
    19    25    26    1
    20    25    27   ar
    21     6     7   ar
    22    14    15    2
    23    15    16    1
    24    16    17    2
    25    17     9    1
    26    17    12    1
    27     7     1   ar
    28    27    21   ar
    29     8    18    1
    30     8    19    1
@<TRIPOS>MOLECULE
*****
 27 30 0 0 0
SMALL
GASTEIGER

@<TRIPOS>ATOM
      1 C          62.4501   84.7042   11.5510 C.ar    1  UNL1        0.0139
      2 C          62.6242   83.3225   10.9937 C.ar    1  UNL1        0.0061
      3 C          63.2264   82.2420   11.8420 C.ar    1  UNL1        0.0608
      4 C          63.6545   82.5431   13.2478 C.ar    1  UNL1        0.2612
      5 O          64.2567   81.4625   14.0961 O.2     1  UNL1       -0.2670
      6 N          63.4804   83.9248   13.8051 N.ar    1  UNL1       -0.2900
      7 C          62.8782   85.0054   12.9567 C.ar    1  UNL1        0.0783
      8 N          59.6411   89.3908    6.9928 N.pl3   1  UNL1       -0.2443
      9 C          60.0392   89.1897    8.4250 C.2     1  UNL1        0.3462
     10 N          59.9027   90.1973    9.5278 N.2     1  UNL1        0.0797
     11 N          60.4228   89.5760   10.7901 N.2     1  UNL1       -0.0381
     12 C          60.8806   88.1845   10.4675 C.2     1  UNL1        0.1169
     13 C          61.4828   87.1040   11.3159 C.3     1  UNL1        0.0763
     14 C          61.8479   85.7848   10.7026 C.2     1  UNL1       -0.0146
     15 C          61.6108   85.5460    9.2408 C.2     1  UNL1       -0.0035
     16 C          61.0086   86.6265    8.3924 C.2     1  UNL1        0.0085
     17 C          60.6436   87.9458    9.0057 C.2     1  UNL1        0.1018
     18 H          59.2502   90.2477    6.7062 H       1  UNL1        0.2885
     19 H          59.7707   88.6658    6.3394 H       1  UNL1        0.2885
     20 C          63.9085   84.2259   15.2108 C.3     1  UNL1        0.1358
     21 C          63.6554   85.5830   15.7975 C.ar    1  UNL1        0.0013
     22 C          62.9509   85.7108   17.1155 C.ar    1  UNL1       -0.0023
     23 C          62.6978   87.0680   17.7022 C.ar    1  UNL1        0.0006
     24 C          63.1493   88.2973   16.9708 C.ar    1  UNL1        0.0114
     25 C          63.8539   88.1695   15.6528 C.ar    1  UNL1        0.0574
     26 CL         64.3054   89.3988   14.9214 Cl      1  UNL1       -0.0823
     27 C          64.1069   86.8123   15.0662 C.ar    1  UNL1        0.0090
@<TRIPOS>BOND
     1     8     9    1
     2     9    10    2
     3    10    11    1
     4    11    12    2
     5    12    13    1
     6    13    14    1
     7    14     1    1
     8     1     2   ar
     9     2     3   ar
    10     3     4   ar
    11     4     5    2
    12     4     6   ar
    13     6    20    1
    14    20    21    1
    15    21    22   ar
    16    22    23   ar
    17    23    24   ar
    18    24    25   ar
    19    25    26    1
    20    25    27   ar
    21     6     7   ar
    22    14    15    2
    23    15    16    1
    24    16    17    2
    25    17     9    1
    26    17    12    1
    27     7     1   ar
    28    27    21   ar
    29     8    18    1
    30     8    19    1
@<TRIPOS>MOLECULE
*****
 27 30 0 0 0
SMALL
GASTEIGER

@<TRIPOS>ATOM
      1 C          62.9931   89.4833   11.8547 C.ar    1  UNL1        0.0139
      2 C          62.4451   90.1681   10.6379 C.ar    1  UNL1        0.0061
      3 C          61.7035   89.3765    9.6019 C.ar    1  UNL1        0.0608
      4 C          61.5098   87.9000    9.7828 C.ar    1  UNL1        0.2612
      5 O          60.7682   87.1084    8.7468 O.2     1  UNL1       -0.2670
      6 N          62.0579   87.2152   10.9996 N.ar    1  UNL1       -0.2900
      7 C          62.7996   88.0069   12.0356 C.ar    1  UNL1        0.0783
      8 N          66.9593   93.4097   16.2690 N.pl3   1  UNL1       -0.2443
      9 C          65.7341   92.5478   16.1907 C.2     1  UNL1        0.3462
     10 N          64.8099   92.2240   17.3269 N.2     1  UNL1        0.0797
     11 N          63.7227   91.3345   16.8009 N.2     1  UNL1       -0.0381
     12 C          63.9749   91.1085   15.3397 C.2     1  UNL1        0.1169
     13 C          63.2333   90.3168   14.3038 C.3     1  UNL1        0.0763
     14 C          63.7348   90.2750   12.8907 C.2     1  UNL1       -0.0146
     15 C          64.9780   91.0249   12.5136 C.2     1  UNL1       -0.0035
     16 C          65.7196   91.8166   13.5495 C.2     1  UNL1        0.0085
     17 C          65.2181   91.8584   14.9625 C.2     1  UNL1        0.1018
     18 H          67.2180   93.8209   17.1252 H       1  UNL1        0.2885
     19 H          67.5047   93.5641   15.4641 H       1  UNL1        0.2885
     20 C          61.8643   85.7388   11.1805 C.3     1  UNL1        0.1358
     21 C          62.6941   84.9907   12.1813 C.ar    1  UNL1        0.0013
     22 C          63.4653   85.7407   13.2267 C.ar    1  UNL1       -0.0023
     23 C          64.2951   84.9925   14.2275 C.ar    1  UNL1        0.0006
     24 C          64.3538   83.4943   14.1830 C.ar    1  UNL1        0.0114
     25 C          63.5826   82.7443   13.1376 C.ar    1  UNL1        0.0574
     26 CL         63.6412   81.2461   13.0931 Cl      1  UNL1       -0.0823
     27 C          62.7528   83.4925   12.1368 C.ar    1  UNL1        0.0090
@<TRIPOS>BOND
     1     8     9    1
     2     9    10    2
     3    10    11    1
     4    11    12    2
     5    12    13    1
     6    13    14    1
     7    14     1    1
     8     1     2   ar
     9     2     3   ar
    10     3     4   ar
    11     4     5    2
    12     4     6   ar
    13     6    20    1
    14    20    21    1
    15    21    22   ar
    16    22    23   ar
    17    23    24   ar
    18    24    25   ar
    19    25    26    1
    20    25    27   ar
    21     6     7   ar
    22    14    15    2
    23    15    16    1
    24    16    17    2
    25    17     9    1
    26    17    12    1
    27     7     1   ar
    28    27    21   ar
    29     8    18    1
    30     8    19    1
@<TRIPOS>MOLECULE
*****
 27 30 0 0 0
SMALL
GASTEIGER

@<TRIPOS>ATOM
      1 C          64.0246   88.0986   14.2684 C.ar    1  UNL1        0.0139
      2 C          63.9669   87.7813   15.7333 C.ar    1  UNL1        0.0061
      3 C          63.5339   86.4194   16.1892 C.ar    1  UNL1        0.0608
      4 C          63.1587   85.3748   15.1802 C.ar    1  UNL1        0.2612
      5 O          62.7258   84.0129   15.6360 O.2     1  UNL1       -0.2670
      6 N          63.2165   85.6922   13.7153 N.ar    1  UNL1       -0.2900
      7 C          63.6494   87.0541   13.2594 C.ar    1  UNL1        0.0783
      8 N          65.6252   94.4921   11.5863 N.pl3   1  UNL1       -0.2443
      9 C          65.9466   93.5329   12.6938 C.2     1  UNL1        0.3462
     10 N          66.9479   93.7538   13.7887 N.2     1  UNL1        0.0797
     11 N          66.9433   92.5418   14.6724 N.2     1  UNL1       -0.0381
     12 C          65.9393   91.5718   14.1237 C.2     1  UNL1        0.1169
     13 C          65.5064   90.2099   14.5796 C.3     1  UNL1        0.0763
     14 C          64.4575   89.4606   13.8126 C.2     1  UNL1       -0.0146
     15 C          63.8416   90.0731   12.5897 C.2     1  UNL1       -0.0035
     16 C          64.2744   91.4350   12.1339 C.2     1  UNL1        0.0085
     17 C          65.3233   92.1843   12.9009 C.2     1  UNL1        0.1018
     18 H          66.0903   95.3582   11.5348 H       1  UNL1        0.2885
     19 H          64.9490   94.2555   10.9110 H       1  UNL1        0.2885
     20 C          62.8413   84.6477   12.7062 C.3     1  UNL1        0.1358
     21 C          62.5513   85.0439   11.2889 C.ar    1  UNL1        0.0013
     22 C          63.3995   84.5108   10.1725 C.ar    1  UNL1       -0.0023
     23 C          63.1095   84.9071    8.7552 C.ar    1  UNL1        0.0006
     24 C          61.9714   85.8365    8.4542 C.ar    1  UNL1        0.0114
     25 C          61.1232   86.3697    9.5705 C.ar    1  UNL1        0.0574
     26 CL         59.9850   87.2993    9.2696 Cl      1  UNL1       -0.0823
     27 C          61.4132   85.9734   10.9879 C.ar    1  UNL1        0.0090
@<TRIPOS>BOND
     1     8     9    1
     2     9    10    2
     3    10    11    1
     4    11    12    2
     5    12    13    1
     6    13    14    1
     7    14     1    1
     8     1     2   ar
     9     2     3   ar
    10     3     4   ar
    11     4     5    2
    12     4     6   ar
    13     6    20    1
    14    20    21    1
    15    21    22   ar
    16    22    23   ar
    17    23    24   ar
    18    24    25   ar
    19    25    26    1
    20    25    27   ar
    21     6     7   ar
    22    14    15    2
    23    15    16    1
    24    16    17    2
    25    17     9    1
    26    17    12    1
    27     7     1   ar
    28    27    21   ar
    29     8    18    1
    30     8    19    1
@<TRIPOS>MOLECULE
*****
 27 30 0 0 0
SMALL
GASTEIGER

@<TRIPOS>ATOM
      1 C          62.8188   87.3650   12.0950 C.ar    1  UNL1        0.0139
      2 C          63.3868   88.4742   12.9299 C.ar    1  UNL1        0.0061
      3 C          64.2496   88.1549   14.1146 C.ar    1  UNL1        0.0608
      4 C          64.5444   86.7263   14.4646 C.ar    1  UNL1        0.2612
      5 O          65.4071   86.4071   15.6493 O.2     1  UNL1       -0.2670
      6 N          63.9763   85.6171   13.6297 N.ar    1  UNL1       -0.2900
      7 C          63.1135   85.9365   12.4449 C.ar    1  UNL1        0.0783
      8 N          58.8408   89.5487    6.6142 N.pl3   1  UNL1       -0.2443
      9 C          59.3436   88.3307    7.3311 C.2     1  UNL1        0.3462
     10 N          59.0478   86.9067    6.9641 N.2     1  UNL1        0.0797
     11 N          59.7518   86.0190    7.9471 N.2     1  UNL1       -0.0381
     12 C          60.4828   86.8943    8.9215 C.2     1  UNL1        0.1169
     13 C          61.3456   86.5749   10.1062 C.3     1  UNL1        0.0763
     14 C          61.9560   87.6843   10.9102 C.2     1  UNL1       -0.0146
     15 C          61.7037   89.1131   10.5296 C.2     1  UNL1       -0.0035
     16 C          60.8410   89.4325    9.3448 C.2     1  UNL1        0.0085
     17 C          60.2305   88.3231    8.5408 C.2     1  UNL1        0.1018
     18 H          58.2603   89.4508    5.8251 H       1  UNL1        0.2885
     19 H          59.0913   90.4459    6.9328 H       1  UNL1        0.2885
     20 C          64.2711   84.1886   13.9796 C.3     1  UNL1        0.1358
     21 C          63.8796   83.0894   13.0370 C.ar    1  UNL1        0.0013
     22 C          64.1939   83.2076   11.5751 C.ar    1  UNL1       -0.0023
     23 C          63.8024   82.1084   10.6325 C.ar    1  UNL1        0.0006
     24 C          63.0965   80.8910   11.1518 C.ar    1  UNL1        0.0114
     25 C          62.7822   80.7729   12.6137 C.ar    1  UNL1        0.0574
     26 CL         62.0762   79.5554   13.1331 Cl      1  UNL1       -0.0823
     27 C          63.1737   81.8721   13.5563 C.ar    1  UNL1        0.0090
@<TRIPOS>BOND
     1     8     9    1
     2     9    10    2
     3    10    11    1
     4    11    12    2
     5    12    13    1
     6    13    14    1
     7    14     1    1
     8     1     2   ar
     9     2     3   ar
    10     3     4   ar
    11     4     5    2
    12     4     6   ar
    13     6    20    1
    14    20    21    1
    15    21    22   ar
    16    22    23   ar
    17    23    24   ar
    18    24    25   ar
    19    25    26    1
    20    25    27   ar
    21     6     7   ar
    22    14    15    2
    23    15    16    1
    24    16    17    2
    25    17     9    1
    26    17    12    1
    27     7     1   ar
    28    27    21   ar
    29     8    18    1
    30     8    19    1
