@<TRIPOS>MOLECULE
*****
 24 27 0 0 0
SMALL
GASTEIGER

@<TRIPOS>ATOM
      1 C          63.7863   90.1037   13.0993 C.ar    1  UNL1        0.0676
      2 C          63.1128   90.6641   11.8819 C.ar    1  UNL1        0.0173
      3 C          62.4656   89.7420   10.8914 C.ar    1  UNL1       -0.0028
      4 C          62.4920   88.2596   11.1184 C.ar    1  UNL1       -0.0224
      5 C          63.1655   87.6991   12.3360 C.ar    1  UNL1       -0.0026
      6 C          63.1919   86.2166   12.5630 C.ar    1  UNL1       -0.0003
      7 C          63.8654   85.6563   13.7805 C.ar    1  UNL1       -0.0000
      8 C          64.5125   86.5783   14.7709 C.ar    1  UNL1        0.0000
      9 C          64.4862   88.0608   14.5439 C.ar    1  UNL1        0.0014
     10 C          63.8126   88.6212   13.3264 C.ar    1  UNL1        0.0159
     11 C          65.5086   92.0277   13.7898 C.ar    1  UNL1        0.1978
     12 N          65.8587   92.7290   15.0687 N.ar    1  UNL1       -0.1213
     13 N          64.9999   92.1604   16.1592 N.ar    1  UNL1       -0.1208
     14 C          64.1190   91.1078   15.5542 C.ar    1  UNL1        0.2054
     15 BR         63.1022   90.2821   16.2852 Br      1  UNL1       -0.0059
     16 N          64.4334   91.0258   14.0898 N.ar    1  UNL1       -0.2638
     17 S          66.1254   92.2836   12.4466 S.3     1  UNL1       -0.0693
     18 C          65.5803   93.3679   11.5651 C.3     1  UNL1        0.1066
     19 O          66.0528   95.8836   12.0093 O.co2   1  UNL1       -0.5483
     20 C          66.3914   94.6027   11.3061 C.2     1  UNL1        0.0617
     21 O          67.5413   94.5567   10.3438 O.co2   1  UNL1       -0.5483
     22 C          61.8448   87.3375   10.1280 C.3     1  UNL1        0.0224
     23 C          61.9610   86.3200    9.0321 C.3     1  UNL1        0.0047
     24 C          60.6078   86.7580    9.5084 C.3     1  UNL1        0.0047
@<TRIPOS>UNITY_ATOM_ATTR
19 1
charge -1
@<TRIPOS>BOND
     1    19    20   ar
     2    20    21   ar
     3    20    18    1
     4    18    17    1
     5    17    11    1
     6    11    12   ar
     7    12    13   ar
     8    13    14   ar
     9    14    15    1
    10    14    16   ar
    11    16     1    1
    12     1     2   ar
    13     2     3   ar
    14     3     4   ar
    15     4    22    1
    16    22    23    1
    17    23    24    1
    18     4     5   ar
    19     5     6   ar
    20     6     7   ar
    21     7     8   ar
    22     8     9   ar
    23     9    10   ar
    24    16    11   ar
    25    10     1   ar
    26    24    22    1
    27    10     5   ar
@<TRIPOS>MOLECULE
*****
 24 27 0 0 0
SMALL
GASTEIGER

@<TRIPOS>ATOM
      1 C          64.0481   89.2715   13.8718 C.ar    1  UNL1        0.0676
      2 C          64.4300   87.9404   14.4480 C.ar    1  UNL1        0.0173
      3 C          64.0383   86.6768   13.7409 C.ar    1  UNL1       -0.0028
      4 C          63.2646   86.7444   12.4577 C.ar    1  UNL1       -0.0224
      5 C          62.8826   88.0756   11.8814 C.ar    1  UNL1       -0.0026
      6 C          62.1089   88.1432   10.5982 C.ar    1  UNL1       -0.0003
      7 C          61.7269   89.4744   10.0220 C.ar    1  UNL1       -0.0000
      8 C          62.1187   90.7380   10.7291 C.ar    1  UNL1        0.0000
      9 C          62.8924   90.6704   12.0123 C.ar    1  UNL1        0.0014
     10 C          63.2743   89.3392   12.5885 C.ar    1  UNL1        0.0159
     11 C          65.3550   91.5969   14.0449 C.ar    1  UNL1        0.1978
     12 N          65.4660   92.6767   15.0801 N.ar    1  UNL1       -0.1213
     13 N          64.6194   92.2824   16.2539 N.ar    1  UNL1       -0.1208
     14 C          63.9852   90.9588   15.9441 C.ar    1  UNL1        0.2054
     15 BR         63.0590   90.1933   16.8420 Br      1  UNL1       -0.0059
     16 N          64.4398   90.5351   14.5789 N.ar    1  UNL1       -0.2638
     17 S          66.0391   91.5815   12.7101 S.3     1  UNL1       -0.0693
     18 C          65.6872   92.6084   11.6749 C.3     1  UNL1        0.1066
     19 O          66.2089   94.9457   12.6824 O.co2   1  UNL1       -0.5483
     20 C          66.4346   93.9079   11.6231 C.2     1  UNL1        0.0617
     21 O          67.4078   94.1696   10.5120 O.co2   1  UNL1       -0.5483
     22 C          62.8728   85.4808   11.7506 C.3     1  UNL1        0.0224
     23 C          62.5062   84.7590   10.4879 C.3     1  UNL1        0.0047
     24 C          62.5610   84.0142   11.7887 C.3     1  UNL1        0.0047
@<TRIPOS>UNITY_ATOM_ATTR
19 1
charge -1
@<TRIPOS>BOND
     1    19    20   ar
     2    20    21   ar
     3    20    18    1
     4    18    17    1
     5    17    11    1
     6    11    12   ar
     7    12    13   ar
     8    13    14   ar
     9    14    15    1
    10    14    16   ar
    11    16     1    1
    12     1     2   ar
    13     2     3   ar
    14     3     4   ar
    15     4    22    1
    16    22    23    1
    17    23    24    1
    18     4     5   ar
    19     5     6   ar
    20     6     7   ar
    21     7     8   ar
    22     8     9   ar
    23     9    10   ar
    24    16    11   ar
    25    10     1   ar
    26    24    22    1
    27    10     5   ar
@<TRIPOS>MOLECULE
*****
 24 27 0 0 0
SMALL
GASTEIGER

@<TRIPOS>ATOM
      1 C          62.9122   90.0440   12.1409 C.ar    1  UNL1        0.0676
      2 C          62.1133   90.8606   11.1689 C.ar    1  UNL1        0.0173
      3 C          61.2628   90.1793   10.1381 C.ar    1  UNL1       -0.0028
      4 C          61.2113   88.6814   10.0793 C.ar    1  UNL1       -0.0224
      5 C          62.0103   87.8647   11.0514 C.ar    1  UNL1       -0.0026
      6 C          61.9588   86.3668   10.9926 C.ar    1  UNL1       -0.0003
      7 C          62.7578   85.5502   11.9645 C.ar    1  UNL1       -0.0000
      8 C          63.6083   86.2315   12.9953 C.ar    1  UNL1        0.0000
      9 C          63.6598   87.7294   13.0541 C.ar    1  UNL1        0.0014
     10 C          62.8608   88.5460   12.0821 C.ar    1  UNL1        0.0159
     11 C          63.6764   90.5284   14.6561 C.ar    1  UNL1        0.1978
     12 N          64.7092   91.4046   15.3009 N.ar    1  UNL1       -0.1213
     13 N          65.4337   92.1432   14.2148 N.ar    1  UNL1       -0.1208
     14 C          64.8488   91.7234   12.8989 C.ar    1  UNL1        0.2054
     15 BR         65.2751   92.2153   11.5475 Br      1  UNL1       -0.0059
     16 N          63.7627   90.7254   13.1717 N.ar    1  UNL1       -0.2638
     17 S          62.7245   89.6154   15.3705 S.3     1  UNL1       -0.0693
     18 C          63.1615   88.9011   16.6151 C.3     1  UNL1        0.1066
     19 O          63.9587   86.4451   16.3283 O.co2   1  UNL1       -0.5483
     20 C          62.9129   87.4292   16.7616 C.2     1  UNL1        0.0617
     21 O          61.6184   86.9413   17.3416 O.co2   1  UNL1       -0.5483
     22 C          60.3609   88.0000    9.0486 C.3     1  UNL1        0.0224
     23 C          59.6959   86.7614    8.5256 C.3     1  UNL1        0.0047
     24 C          59.5528   88.0586    7.7862 C.3     1  UNL1        0.0047
@<TRIPOS>UNITY_ATOM_ATTR
19 1
charge -1
@<TRIPOS>BOND
     1    19    20   ar
     2    20    21   ar
     3    20    18    1
     4    18    17    1
     5    17    11    1
     6    11    12   ar
     7    12    13   ar
     8    13    14   ar
     9    14    15    1
    10    14    16   ar
    11    16     1    1
    12     1     2   ar
    13     2     3   ar
    14     3     4   ar
    15     4    22    1
    16    22    23    1
    17    23    24    1
    18     4     5   ar
    19     5     6   ar
    20     6     7   ar
    21     7     8   ar
    22     8     9   ar
    23     9    10   ar
    24    16    11   ar
    25    10     1   ar
    26    24    22    1
    27    10     5   ar
@<TRIPOS>MOLECULE
*****
 24 27 0 0 0
SMALL
GASTEIGER

@<TRIPOS>ATOM
      1 C          64.9382   90.8489   14.0337 C.ar    1  UNL1        0.0676
      2 C          66.3397   91.3526   14.2126 C.ar    1  UNL1        0.0173
      3 C          67.0448   92.0285   13.0742 C.ar    1  UNL1       -0.0028
      4 C          66.3484   92.2007   11.7569 C.ar    1  UNL1       -0.0224
      5 C          64.9468   91.6971   11.5779 C.ar    1  UNL1       -0.0026
      6 C          64.2504   91.8693   10.2606 C.ar    1  UNL1       -0.0003
      7 C          62.8489   91.3657   10.0817 C.ar    1  UNL1       -0.0000
      8 C          62.1438   90.6898   11.2202 C.ar    1  UNL1        0.0000
      9 C          62.8402   90.5175   12.5374 C.ar    1  UNL1        0.0014
     10 C          64.2417   91.0212   12.7163 C.ar    1  UNL1        0.0159
     11 C          63.8987   88.7134   15.2601 C.ar    1  UNL1        0.1978
     12 N          63.1975   88.4763   16.5648 N.ar    1  UNL1       -0.1213
     13 N          63.0986   89.7894   17.2831 N.ar    1  UNL1       -0.1208
     14 C          63.7386   90.8380   16.4224 C.ar    1  UNL1        0.2054
     15 BR         63.8624   92.2957   16.7538 Br      1  UNL1       -0.0059
     16 N          64.2331   90.1730   15.1721 N.ar    1  UNL1       -0.2638
     17 S          64.2106   87.6735   14.2251 S.3     1  UNL1       -0.0693
     18 C          64.5047   86.2633   14.6435 C.3     1  UNL1        0.1066
     19 O          62.3145   84.9955   14.0561 O.co2   1  UNL1       -0.5483
     20 C          63.8068   85.1198   13.9691 C.2     1  UNL1        0.0617
     21 O          64.6011   84.1003   13.2076 O.co2   1  UNL1       -0.5483
     22 C          67.0535   92.8766   10.6185 C.3     1  UNL1        0.0224
     23 C          67.2801   94.0917    9.7686 C.3     1  UNL1        0.0047
     24 C          68.0482   92.8323    9.4966 C.3     1  UNL1        0.0047
@<TRIPOS>UNITY_ATOM_ATTR
19 1
charge -1
@<TRIPOS>BOND
     1    19    20   ar
     2    20    21   ar
     3    20    18    1
     4    18    17    1
     5    17    11    1
     6    11    12   ar
     7    12    13   ar
     8    13    14   ar
     9    14    15    1
    10    14    16   ar
    11    16     1    1
    12     1     2   ar
    13     2     3   ar
    14     3     4   ar
    15     4    22    1
    16    22    23    1
    17    23    24    1
    18     4     5   ar
    19     5     6   ar
    20     6     7   ar
    21     7     8   ar
    22     8     9   ar
    23     9    10   ar
    24    16    11   ar
    25    10     1   ar
    26    24    22    1
    27    10     5   ar
@<TRIPOS>MOLECULE
*****
 24 27 0 0 0
SMALL
GASTEIGER

@<TRIPOS>ATOM
      1 C          62.9067   89.3301   12.5666 C.ar    1  UNL1        0.0676
      2 C          63.2380   88.8995   13.9647 C.ar    1  UNL1        0.0173
      3 C          64.2848   89.6351   14.7478 C.ar    1  UNL1       -0.0028
      4 C          65.0001   90.8012   14.1328 C.ar    1  UNL1       -0.0224
      5 C          64.6688   91.2319   12.7346 C.ar    1  UNL1       -0.0026
      6 C          65.3841   92.3980   12.1196 C.ar    1  UNL1       -0.0003
      7 C          65.0527   92.8286   10.7215 C.ar    1  UNL1       -0.0000
      8 C          64.0060   92.0930    9.9384 C.ar    1  UNL1        0.0000
      9 C          63.2907   90.9269   10.5534 C.ar    1  UNL1        0.0014
     10 C          63.6220   90.4963   11.9515 C.ar    1  UNL1        0.0159
     11 C          61.9178   87.1535   11.3708 C.ar    1  UNL1        0.1978
     12 N          60.6652   86.8392   10.6078 N.ar    1  UNL1       -0.1213
     13 N          59.8331   88.0858   10.5490 N.ar    1  UNL1       -0.1208
     14 C          60.5715   89.1706   11.2756 C.ar    1  UNL1        0.2054
     15 BR         60.1035   90.5836   11.4617 Br      1  UNL1       -0.0059
     16 N          61.8599   88.5945   11.7835 N.ar    1  UNL1       -0.2638
     17 S          63.0327   86.1952   11.6687 S.3     1  UNL1       -0.0693
     18 C          62.7300   84.8587   12.2787 C.3     1  UNL1        0.1066
     19 O          64.5273   84.1334   14.0089 O.co2   1  UNL1       -0.5483
     20 C          63.1279   84.5740   13.6966 C.2     1  UNL1        0.0617
     21 O          62.1263   84.7300   14.8024 O.co2   1  UNL1       -0.5483
     22 C          66.0469   91.5368   14.9159 C.3     1  UNL1        0.0224
     23 C          66.4165   92.5534   15.9551 C.3     1  UNL1        0.0047
     24 C          67.4901   91.7943   15.2331 C.3     1  UNL1        0.0047
@<TRIPOS>UNITY_ATOM_ATTR
19 1
charge -1
@<TRIPOS>BOND
     1    19    20   ar
     2    20    21   ar
     3    20    18    1
     4    18    17    1
     5    17    11    1
     6    11    12   ar
     7    12    13   ar
     8    13    14   ar
     9    14    15    1
    10    14    16   ar
    11    16     1    1
    12     1     2   ar
    13     2     3   ar
    14     3     4   ar
    15     4    22    1
    16    22    23    1
    17    23    24    1
    18     4     5   ar
    19     5     6   ar
    20     6     7   ar
    21     7     8   ar
    22     8     9   ar
    23     9    10   ar
    24    16    11   ar
    25    10     1   ar
    26    24    22    1
    27    10     5   ar
@<TRIPOS>MOLECULE
*****
 24 27 0 0 0
SMALL
GASTEIGER

@<TRIPOS>ATOM
      1 C          62.6222   90.2648   11.3464 C.ar    1  UNL1        0.0676
      2 C          62.8624   90.9306   10.0239 C.ar    1  UNL1        0.0173
      3 C          63.9856   91.9131    9.8718 C.ar    1  UNL1       -0.0028
      4 C          64.8687   92.2297   11.0423 C.ar    1  UNL1       -0.0224
      5 C          64.6285   91.5639   12.3648 C.ar    1  UNL1       -0.0026
      6 C          65.5115   91.8806   13.5353 C.ar    1  UNL1       -0.0003
      7 C          65.2713   91.2148   14.8577 C.ar    1  UNL1       -0.0000
      8 C          64.1481   90.2323   15.0098 C.ar    1  UNL1        0.0000
      9 C          63.2650   89.9157   13.8393 C.ar    1  UNL1        0.0014
     10 C          63.5053   90.5815   12.5169 C.ar    1  UNL1        0.0159
     11 C          61.6361   87.7904   11.5696 C.ar    1  UNL1        0.1978
     12 N          60.2633   87.2053   11.7211 N.ar    1  UNL1       -0.1213
     13 N          59.2776   88.3357   11.7436 N.ar    1  UNL1       -0.1208
     14 C          60.0413   89.6194   11.6060 C.ar    1  UNL1        0.2054
     15 BR         59.4509   90.9981   11.5804 Br      1  UNL1       -0.0059
     16 N          61.4990   89.2824   11.4984 N.ar    1  UNL1       -0.2638
     17 S          62.9207   87.0188   11.5012 S.3     1  UNL1       -0.0693
     18 C          62.8998   85.5202   11.5621 C.3     1  UNL1        0.1066
     19 O          62.2992   84.9427   14.0229 O.co2   1  UNL1       -0.5483
     20 C          63.2222   84.8172   12.8472 C.2     1  UNL1        0.0617
     21 O          64.4678   83.9885   12.9568 O.co2   1  UNL1       -0.5483
     22 C          65.9919   93.2122   10.8902 C.3     1  UNL1        0.0224
     23 C          66.5141   94.6145   10.9937 C.3     1  UNL1        0.0047
     24 C          67.4152   93.5115   10.5235 C.3     1  UNL1        0.0047
@<TRIPOS>UNITY_ATOM_ATTR
19 1
charge -1
@<TRIPOS>BOND
     1    19    20   ar
     2    20    21   ar
     3    20    18    1
     4    18    17    1
     5    17    11    1
     6    11    12   ar
     7    12    13   ar
     8    13    14   ar
     9    14    15    1
    10    14    16   ar
    11    16     1    1
    12     1     2   ar
    13     2     3   ar
    14     3     4   ar
    15     4    22    1
    16    22    23    1
    17    23    24    1
    18     4     5   ar
    19     5     6   ar
    20     6     7   ar
    21     7     8   ar
    22     8     9   ar
    23     9    10   ar
    24    16    11   ar
    25    10     1   ar
    26    24    22    1
    27    10     5   ar
@<TRIPOS>MOLECULE
*****
 24 27 0 0 0
SMALL
GASTEIGER

@<TRIPOS>ATOM
      1 C          63.7396   88.9661   13.6942 C.ar    1  UNL1        0.0676
      2 C          64.1322   87.5701   14.0776 C.ar    1  UNL1        0.0173
      3 C          63.8092   86.4232   13.1665 C.ar    1  UNL1       -0.0028
      4 C          63.0937   86.6722   11.8719 C.ar    1  UNL1       -0.0224
      5 C          62.7011   88.0682   11.4885 C.ar    1  UNL1       -0.0026
      6 C          61.9855   88.3173   10.1939 C.ar    1  UNL1       -0.0003
      7 C          61.5929   89.7133    9.8105 C.ar    1  UNL1       -0.0000
      8 C          61.9159   90.8602   10.7216 C.ar    1  UNL1        0.0000
      9 C          62.6315   90.6112   12.0162 C.ar    1  UNL1        0.0014
     10 C          63.0240   89.2152   12.3996 C.ar    1  UNL1        0.0159
     11 C          63.5291   90.3143   15.9927 C.ar    1  UNL1        0.1978
     12 N          64.1125   91.5858   16.5339 N.ar    1  UNL1       -0.1213
     13 N          65.0067   92.1704   15.4810 N.ar    1  UNL1       -0.1208
     14 C          64.9758   91.2602   14.2891 C.ar    1  UNL1        0.2054
     15 BR         65.7265   91.4618   13.0062 Br      1  UNL1       -0.0059
     16 N          64.0626   90.1131   14.6053 N.ar    1  UNL1       -0.2638
     17 S          62.5789   89.4039   16.7126 S.3     1  UNL1       -0.0693
     18 C          63.1051   88.2370   17.4945 C.3     1  UNL1        0.1066
     19 O          63.6673   85.7879   16.8344 O.co2   1  UNL1       -0.5483
     20 C          62.6550   86.8458   17.1602 C.2     1  UNL1        0.0617
     21 O          61.1925   86.5123   17.1518 O.co2   1  UNL1       -0.5483
     22 C          62.7707   85.5252   10.9608 C.3     1  UNL1        0.0224
     23 C          63.0318   84.1240   10.4936 C.3     1  UNL1        0.0047
     24 C          61.9502   84.9399    9.8499 C.3     1  UNL1        0.0047
@<TRIPOS>UNITY_ATOM_ATTR
19 1
charge -1
@<TRIPOS>BOND
     1    19    20   ar
     2    20    21   ar
     3    20    18    1
     4    18    17    1
     5    17    11    1
     6    11    12   ar
     7    12    13   ar
     8    13    14   ar
     9    14    15    1
    10    14    16   ar
    11    16     1    1
    12     1     2   ar
    13     2     3   ar
    14     3     4   ar
    15     4    22    1
    16    22    23    1
    17    23    24    1
    18     4     5   ar
    19     5     6   ar
    20     6     7   ar
    21     7     8   ar
    22     8     9   ar
    23     9    10   ar
    24    16    11   ar
    25    10     1   ar
    26    24    22    1
    27    10     5   ar
@<TRIPOS>MOLECULE
*****
 24 27 0 0 0
SMALL
GASTEIGER

@<TRIPOS>ATOM
      1 C          59.1386   93.9198   -1.1866 C.ar    1  UNL1        0.0676
      2 C          58.7927   93.4334    0.1896 C.ar    1  UNL1        0.0173
      3 C          59.8771   92.9655    1.1143 C.ar    1  UNL1       -0.0028
      4 C          61.3074   92.9838    0.6629 C.ar    1  UNL1       -0.0224
      5 C          61.6534   93.4701   -0.7133 C.ar    1  UNL1       -0.0026
      6 C          63.0837   93.4885   -1.1648 C.ar    1  UNL1       -0.0003
      7 C          63.4296   93.9748   -2.5409 C.ar    1  UNL1       -0.0000
      8 C          62.3452   94.4428   -3.4656 C.ar    1  UNL1        0.0000
      9 C          60.9149   94.4244   -3.0142 C.ar    1  UNL1        0.0014
     10 C          60.5690   93.9381   -1.6380 C.ar    1  UNL1        0.0159
     11 C          57.4608   93.6023   -3.2431 C.ar    1  UNL1        0.1978
     12 N          56.4127   94.4525   -3.8978 N.ar    1  UNL1       -0.1213
     13 N          56.3583   95.7633   -3.1707 N.ar    1  UNL1       -0.1208
     14 C          57.3729   95.7233   -2.0666 C.ar    1  UNL1        0.2054
     15 BR         57.6563   96.8254   -1.0893 Br      1  UNL1       -0.0059
     16 N          58.0542   94.3877   -2.1113 N.ar    1  UNL1       -0.2638
     17 S          57.8476   92.2110   -3.6489 S.3     1  UNL1       -0.0693
     18 C          56.7970   91.2447   -4.1099 C.3     1  UNL1        0.1066
     19 O          55.0535   89.4410   -3.4341 O.co2   1  UNL1       -0.5483
     20 C          55.7851   90.7164   -3.1370 C.2     1  UNL1        0.0617
     21 O          55.5045   91.4634   -1.8667 O.co2   1  UNL1       -0.5483
     22 C          62.3918   92.5158    1.5876 C.3     1  UNL1        0.0224
     23 C          62.9481   91.4786    2.5175 C.3     1  UNL1        0.0047
     24 C          63.7137   92.7425    2.2593 C.3     1  UNL1        0.0047
@<TRIPOS>UNITY_ATOM_ATTR
19 1
charge -1
@<TRIPOS>BOND
     1    19    20   ar
     2    20    21   ar
     3    20    18    1
     4    18    17    1
     5    17    11    1
     6    11    12   ar
     7    12    13   ar
     8    13    14   ar
     9    14    15    1
    10    14    16   ar
    11    16     1    1
    12     1     2   ar
    13     2     3   ar
    14     3     4   ar
    15     4    22    1
    16    22    23    1
    17    23    24    1
    18     4     5   ar
    19     5     6   ar
    20     6     7   ar
    21     7     8   ar
    22     8     9   ar
    23     9    10   ar
    24    16    11   ar
    25    10     1   ar
    26    24    22    1
    27    10     5   ar
@<TRIPOS>MOLECULE
*****
 24 27 0 0 0
SMALL
GASTEIGER

@<TRIPOS>ATOM
      1 C          61.9882   86.3147   10.6654 C.ar    1  UNL1        0.0676
      2 C          62.1046   84.9637   11.3066 C.ar    1  UNL1        0.0173
      3 C          62.8147   84.8154   12.6196 C.ar    1  UNL1       -0.0028
      4 C          63.4084   86.0181   13.2912 C.ar    1  UNL1       -0.0224
      5 C          63.2919   87.3691   12.6500 C.ar    1  UNL1       -0.0026
      6 C          63.8856   88.5718   13.3216 C.ar    1  UNL1       -0.0003
      7 C          63.7691   89.9228   12.6804 C.ar    1  UNL1       -0.0000
      8 C          63.0590   90.0711   11.3675 C.ar    1  UNL1        0.0000
      9 C          62.4654   88.8684   10.6958 C.ar    1  UNL1        0.0014
     10 C          62.5818   87.5175   11.3370 C.ar    1  UNL1        0.0159
     11 C          60.0467   87.2827    9.1037 C.ar    1  UNL1        0.1978
     12 N          59.6823   87.1440    7.6553 N.ar    1  UNL1       -0.1213
     13 N          60.6885   86.2386    7.0088 N.ar    1  UNL1       -0.1208
     14 C          61.6747   85.8178    8.0577 C.ar    1  UNL1        0.2054
     15 BR         62.8511   84.9109    7.8486 Br      1  UNL1       -0.0059
     16 N          61.2781   86.4631    9.3524 N.ar    1  UNL1       -0.2638
     17 S          59.3092   88.0979   10.1242 S.3     1  UNL1       -0.0693
     18 C          59.5989   89.5628   10.2660 C.3     1  UNL1        0.1066
     19 O          58.6683   91.5817   11.6104 O.co2   1  UNL1       -0.5483
     20 C          59.3601   90.2512   11.5770 C.2     1  UNL1        0.0617
     21 O          59.8131   89.6092   12.8548 O.co2   1  UNL1       -0.5483
     22 C          64.1184   85.8697   14.6042 C.3     1  UNL1        0.0224
     23 C          65.3634   85.5550   15.3794 C.3     1  UNL1        0.0047
     24 C          64.1034   85.9275   16.1029 C.3     1  UNL1        0.0047
@<TRIPOS>UNITY_ATOM_ATTR
19 1
charge -1
@<TRIPOS>BOND
     1    19    20   ar
     2    20    21   ar
     3    20    18    1
     4    18    17    1
     5    17    11    1
     6    11    12   ar
     7    12    13   ar
     8    13    14   ar
     9    14    15    1
    10    14    16   ar
    11    16     1    1
    12     1     2   ar
    13     2     3   ar
    14     3     4   ar
    15     4    22    1
    16    22    23    1
    17    23    24    1
    18     4     5   ar
    19     5     6   ar
    20     6     7   ar
    21     7     8   ar
    22     8     9   ar
    23     9    10   ar
    24    16    11   ar
    25    10     1   ar
    26    24    22    1
    27    10     5   ar
