@<TRIPOS>MOLECULE
*****
 29 31 0 0 0
SMALL
GASTEIGER

@<TRIPOS>ATOM
      1 N          63.8942   90.6585   12.1203 N.pl3   1  UNL1       -0.3040
      2 C          63.4427   89.3150   12.6115 C.3     1  UNL1        0.1123
      3 C          62.4650   88.5117   11.8062 C.3     1  UNL1        0.1149
      4 N          61.9387   89.0518   10.5094 N.am    1  UNL1       -0.2744
      5 C          60.9609   88.2485    9.7041 C.2     1  UNL1        0.2506
      6 O          60.4347   88.7886    8.4074 O.2     1  UNL1       -0.2727
      7 C          62.3902   90.3952   10.0182 C.3     1  UNL1        0.1149
      8 C          63.3680   91.1986   10.8236 C.3     1  UNL1        0.1123
      9 C          66.3155   93.6002   13.2307 C.ar    1  UNL1        0.1504
     10 C          65.3378   92.7969   12.4253 C.ar    1  UNL1        0.0523
     11 C          64.8720   91.4618   12.9257 C.ar    1  UNL1        0.0510
     12 C          65.3839   90.9300   14.2315 C.ar    1  UNL1        0.0156
     13 C          66.3616   91.7333   15.0369 C.ar    1  UNL1        0.0157
     14 C          66.8274   93.0684   14.5365 C.ar    1  UNL1        0.0916
     15 CL         67.8052   93.8718   15.3419 Cl      1  UNL1       -0.0791
     16 C          66.3196   95.4386   11.3948 C.3     1  UNL1        0.2525
     17 O          66.7814   94.9354   12.7303 O.3     1  UNL1       -0.4705
     18 C          60.5095   86.9050   10.1953 C.3     1  UNL1        0.2116
     19 N          61.5217   85.8823   10.6188 N.ar    1  UNL1       -0.2447
     20 N          61.7347   85.3784   12.0155 N.ar    1  UNL1       -0.1642
     21 C          62.8433   84.3686   11.9799 C.ar    1  UNL1        0.1837
     22 C          63.3154   84.2483   10.5611 C.ar    1  UNL1        0.0941
     23 CL         64.4118   83.3503   10.0699 Cl      1  UNL1       -0.0795
     24 C          62.4986   85.1839    9.7200 C.ar    1  UNL1        0.0685
     25 C          62.6348   85.3856    8.2399 C.3     1  UNL1        0.0527
     26 C          63.3847   83.6118   13.1564 C.3     1  UNL1        0.4373
     27 F          63.9262   82.8551   14.3329 F       1  UNL1       -0.1643
     28 F          62.4639   82.4693   12.8452 F       1  UNL1       -0.1643
     29 F          64.3055   84.7544   13.4675 F       1  UNL1       -0.1643
@<TRIPOS>BOND
     1    16    17    1
     2    17     9    1
     3     9    10   ar
     4    10    11   ar
     5    11     1    1
     6     1     2    1
     7     2     3    1
     8     3     4    1
     9     4     5   am
    10     5     6    2
    11     5    18    1
    12    18    19    1
    13    19    20   ar
    14    20    21   ar
    15    21    26    1
    16    26    27    1
    17    26    28    1
    18    26    29    1
    19    21    22   ar
    20    22    23    1
    21    22    24   ar
    22    24    25    1
    23     4     7    1
    24     7     8    1
    25    11    12   ar
    26    12    13   ar
    27    13    14   ar
    28    14    15    1
    29    14     9   ar
    30     8     1    1
    31    24    19   ar
@<TRIPOS>MOLECULE
*****
 29 31 0 0 0
SMALL
GASTEIGER

@<TRIPOS>ATOM
      1 N          62.7447   89.5204   11.0362 N.pl3   1  UNL1       -0.3040
      2 C          63.2247   90.8615   10.5660 C.3     1  UNL1        0.1123
      3 C          64.1042   91.6954   11.4497 C.3     1  UNL1        0.1149
      4 N          64.5037   91.1883   12.8038 N.am    1  UNL1       -0.2744
      5 C          65.3831   92.0223   13.6875 C.2     1  UNL1        0.2506
      6 O          65.7826   91.5151   15.0414 O.2     1  UNL1       -0.2727
      7 C          64.0237   89.8472   13.2740 C.3     1  UNL1        0.1149
      8 C          63.1442   89.0133   12.3902 C.3     1  UNL1        0.1123
      9 C          59.9699   88.5124    8.3840 C.ar    1  UNL1        0.1504
     10 C          60.8494   89.3463    9.2677 C.ar    1  UNL1        0.0523
     11 C          61.8652   88.6864   10.1524 C.ar    1  UNL1        0.0510
     12 C          62.0016   87.1927   10.1533 C.ar    1  UNL1        0.0156
     13 C          61.1222   86.3588    9.2695 C.ar    1  UNL1        0.0157
     14 C          60.1063   87.0187    8.3848 C.ar    1  UNL1        0.0916
     15 CL         59.2268   86.1847    7.5010 Cl      1  UNL1       -0.0791
     16 C          59.3693   89.7408    6.1748 C.3     1  UNL1        0.2525
     17 O          58.9541   89.1723    7.4993 O.3     1  UNL1       -0.4705
     18 C          65.8631   93.3634   13.2173 C.3     1  UNL1        0.2116
     19 N          66.5695   93.4875   11.8999 N.ar    1  UNL1       -0.2447
     20 N          67.4381   92.4433   11.2634 N.ar    1  UNL1       -0.1642
     21 C          67.9367   92.9881    9.9578 C.ar    1  UNL1        0.1837
     22 C          67.3762   94.3691    9.7874 C.ar    1  UNL1        0.0941
     23 CL         67.6183   95.2812    8.6214 Cl      1  UNL1       -0.0795
     24 C          66.5313   94.6777   10.9877 C.ar    1  UNL1        0.0685
     25 C          65.7800   95.9526   11.2327 C.3     1  UNL1        0.0527
     26 C          68.8376   92.2769    8.9921 C.3     1  UNL1        0.4373
     27 F          69.7385   91.5656    8.0264 F       1  UNL1       -0.1643
     28 F          67.7351   91.3102    8.6755 F       1  UNL1       -0.1643
     29 F          69.9401   93.2435    9.3087 F       1  UNL1       -0.1643
@<TRIPOS>BOND
     1    16    17    1
     2    17     9    1
     3     9    10   ar
     4    10    11   ar
     5    11     1    1
     6     1     2    1
     7     2     3    1
     8     3     4    1
     9     4     5   am
    10     5     6    2
    11     5    18    1
    12    18    19    1
    13    19    20   ar
    14    20    21   ar
    15    21    26    1
    16    26    27    1
    17    26    28    1
    18    26    29    1
    19    21    22   ar
    20    22    23    1
    21    22    24   ar
    22    24    25    1
    23     4     7    1
    24     7     8    1
    25    11    12   ar
    26    12    13   ar
    27    13    14   ar
    28    14    15    1
    29    14     9   ar
    30     8     1    1
    31    24    19   ar
@<TRIPOS>MOLECULE
*****
 29 31 0 0 0
SMALL
GASTEIGER

@<TRIPOS>ATOM
      1 N          62.7714   85.8500   11.7705 N.pl3   1  UNL1       -0.3040
      2 C          63.4490   86.6786   12.8214 C.3     1  UNL1        0.1123
      3 C          63.3941   88.1757   12.7469 C.3     1  UNL1        0.1149
      4 N          62.6617   88.8443   11.6214 N.am    1  UNL1       -0.2744
      5 C          62.6068   90.3414   11.5469 C.2     1  UNL1        0.2506
      6 O          61.8744   91.0099   10.4214 O.2     1  UNL1       -0.2727
      7 C          61.9841   88.0157   10.5705 C.3     1  UNL1        0.1149
      8 C          62.0390   86.5185   10.6451 C.3     1  UNL1        0.1123
      9 C          62.3239   82.1435   13.1164 C.ar    1  UNL1        0.1504
     10 C          62.2690   83.6406   13.0418 C.ar    1  UNL1        0.0523
     11 C          62.8263   84.3528   11.8451 C.ar    1  UNL1        0.0510
     12 C          63.4385   83.5679   10.7230 C.ar    1  UNL1        0.0156
     13 C          63.4934   82.0708   10.7976 C.ar    1  UNL1        0.0157
     14 C          62.9361   81.3586   11.9943 C.ar    1  UNL1        0.0916
     15 CL         62.9910   79.8614   12.0689 Cl      1  UNL1       -0.0791
     16 C          60.4721   80.6813   14.2040 C.3     1  UNL1        0.2525
     17 O          61.7666   81.4312   14.3131 O.3     1  UNL1       -0.4705
     18 C          63.2843   91.1700   12.5978 C.3     1  UNL1        0.2116
     19 N          64.6990   91.6263   12.3965 N.ar    1  UNL1       -0.2447
     20 N          65.2705   92.1944   11.1314 N.ar    1  UNL1       -0.1642
     21 C          66.7152   92.5138   11.3779 C.ar    1  UNL1        0.1837
     22 C          67.0366   92.1431   12.7955 C.ar    1  UNL1        0.0941
     23 CL         68.3699   92.2944   13.4658 Cl      1  UNL1       -0.0795
     24 C          65.7904   91.5946   13.4250 C.ar    1  UNL1        0.0685
     25 C          65.6588   91.1011   14.8353 C.3     1  UNL1        0.0527
     26 C          67.6709   93.1008   10.3818 C.3     1  UNL1        0.4373
     27 F          68.6265   93.6878    9.3858 F       1  UNL1       -0.1643
     28 F          67.0857   94.4609   10.6220 F       1  UNL1       -0.1643
     29 F          68.2560   91.7407   10.1417 F       1  UNL1       -0.1643
@<TRIPOS>BOND
     1    16    17    1
     2    17     9    1
     3     9    10   ar
     4    10    11   ar
     5    11     1    1
     6     1     2    1
     7     2     3    1
     8     3     4    1
     9     4     5   am
    10     5     6    2
    11     5    18    1
    12    18    19    1
    13    19    20   ar
    14    20    21   ar
    15    21    26    1
    16    26    27    1
    17    26    28    1
    18    26    29    1
    19    21    22   ar
    20    22    23    1
    21    22    24   ar
    22    24    25    1
    23     4     7    1
    24     7     8    1
    25    11    12   ar
    26    12    13   ar
    27    13    14   ar
    28    14    15    1
    29    14     9   ar
    30     8     1    1
    31    24    19   ar
@<TRIPOS>MOLECULE
*****
 29 31 0 0 0
SMALL
GASTEIGER

@<TRIPOS>ATOM
      1 N          64.0238   90.8151   12.1532 N.pl3   1  UNL1       -0.3040
      2 C          63.5437   89.5049   12.7036 C.3     1  UNL1        0.1123
      3 C          62.5508   88.6864   11.9330 C.3     1  UNL1        0.1149
      4 N          62.0378   89.1780   10.6119 N.am    1  UNL1       -0.2744
      5 C          61.0448   88.3594    9.8412 C.2     1  UNL1        0.2506
      6 O          60.5319   88.8511    8.5202 O.2     1  UNL1       -0.2727
      7 C          62.5178   90.4882   10.0615 C.3     1  UNL1        0.1149
      8 C          63.5109   91.3068   10.8322 C.3     1  UNL1        0.1123
      9 C          65.9633   92.4714   15.1938 C.ar    1  UNL1        0.1504
     10 C          64.9703   91.6529   14.4231 C.ar    1  UNL1        0.0523
     11 C          65.0168   91.6337   12.9239 C.ar    1  UNL1        0.0510
     12 C          66.0562   92.4330   12.1955 C.ar    1  UNL1        0.0156
     13 C          67.0492   93.2515   12.9662 C.ar    1  UNL1        0.0157
     14 C          67.0027   93.2707   14.4654 C.ar    1  UNL1        0.0916
     15 CL         67.9957   94.0893   15.2361 Cl      1  UNL1       -0.0791
     16 C          64.5955   92.4683   17.4027 C.3     1  UNL1        0.2525
     17 O          65.9168   92.4906   16.6930 O.3     1  UNL1       -0.4705
     18 C          60.5648   87.0492   10.3916 C.3     1  UNL1        0.2116
     19 N          61.5529   85.9793   10.7506 N.ar    1  UNL1       -0.2447
     20 N          61.7964   85.4292   12.1247 N.ar    1  UNL1       -0.1642
     21 C          62.8650   84.3816   12.0219 C.ar    1  UNL1        0.1837
     22 C          63.2820   84.2843   10.5843 C.ar    1  UNL1        0.0941
     23 CL         64.3265   83.3615   10.0297 Cl      1  UNL1       -0.0795
     24 C          62.4711   85.2717    9.7986 C.ar    1  UNL1        0.0685
     25 C          62.5623   85.5098    8.3204 C.3     1  UNL1        0.0527
     26 C          63.4194   83.5733   13.1574 C.3     1  UNL1        0.4373
     27 F          63.9737   82.7649   14.2928 F       1  UNL1       -0.1643
     28 F          64.6525   84.4274   13.1634 F       1  UNL1       -0.1643
     29 F          62.1863   82.7191   13.1513 F       1  UNL1       -0.1643
@<TRIPOS>BOND
     1    16    17    1
     2    17     9    1
     3     9    10   ar
     4    10    11   ar
     5    11     1    1
     6     1     2    1
     7     2     3    1
     8     3     4    1
     9     4     5   am
    10     5     6    2
    11     5    18    1
    12    18    19    1
    13    19    20   ar
    14    20    21   ar
    15    21    26    1
    16    26    27    1
    17    26    28    1
    18    26    29    1
    19    21    22   ar
    20    22    23    1
    21    22    24   ar
    22    24    25    1
    23     4     7    1
    24     7     8    1
    25    11    12   ar
    26    12    13   ar
    27    13    14   ar
    28    14    15    1
    29    14     9   ar
    30     8     1    1
    31    24    19   ar
@<TRIPOS>MOLECULE
*****
 29 31 0 0 0
SMALL
GASTEIGER

@<TRIPOS>ATOM
      1 N          62.7933   89.5970   11.0938 N.pl3   1  UNL1       -0.3040
      2 C          63.1827   90.9861   10.6828 C.3     1  UNL1        0.1123
      3 C          64.0808   91.8045   11.5623 C.3     1  UNL1        0.1149
      4 N          64.5894   91.2339   12.8530 N.am    1  UNL1       -0.2744
      5 C          65.4875   92.0523   13.7325 C.2     1  UNL1        0.2506
      6 O          65.9961   91.4817   15.0231 O.2     1  UNL1       -0.2727
      7 C          64.2000   89.8449   13.2640 C.3     1  UNL1        0.1149
      8 C          63.3019   89.0264   12.3844 C.3     1  UNL1        0.1123
      9 C          60.0050   88.6389    8.4372 C.ar    1  UNL1        0.1504
     10 C          60.9030   89.4572    9.3168 C.ar    1  UNL1        0.0523
     11 C          61.8952   88.7786   10.2142 C.ar    1  UNL1        0.0510
     12 C          61.9892   87.2817   10.2319 C.ar    1  UNL1        0.0156
     13 C          61.0911   86.4634    9.3523 C.ar    1  UNL1        0.0157
     14 C          60.0990   87.1420    8.4550 C.ar    1  UNL1        0.0916
     15 CL         59.2009   86.3235    7.5753 Cl      1  UNL1       -0.0791
     16 C          59.4182   89.7431    6.1599 C.3     1  UNL1        0.2525
     17 O          59.0128   89.3174    7.5399 O.3     1  UNL1       -0.4705
     18 C          65.8769   93.4413   13.3215 C.3     1  UNL1        0.2116
     19 N          66.5237   93.6754   11.9886 N.ar    1  UNL1       -0.2447
     20 N          66.2824   94.8484   11.0853 N.ar    1  UNL1       -0.1642
     21 C          67.1350   94.6757    9.8634 C.ar    1  UNL1        0.1837
     22 C          67.9033   93.3958   10.0113 C.ar    1  UNL1        0.0941
     23 CL         68.8781   92.8330    9.0199 Cl      1  UNL1       -0.0795
     24 C          67.5255   92.7777   11.3248 C.ar    1  UNL1        0.0685
     25 C          68.0563   91.4882   11.8774 C.3     1  UNL1        0.0527
     26 C          67.2067   95.6173    8.6980 C.3     1  UNL1        0.4373
     27 F          67.2784   96.5590    7.5326 F       1  UNL1       -0.1643
     28 F          66.7822   94.5112    7.7780 F       1  UNL1       -0.1643
     29 F          67.6311   96.7235    9.6179 F       1  UNL1       -0.1643
@<TRIPOS>BOND
     1    16    17    1
     2    17     9    1
     3     9    10   ar
     4    10    11   ar
     5    11     1    1
     6     1     2    1
     7     2     3    1
     8     3     4    1
     9     4     5   am
    10     5     6    2
    11     5    18    1
    12    18    19    1
    13    19    20   ar
    14    20    21   ar
    15    21    26    1
    16    26    27    1
    17    26    28    1
    18    26    29    1
    19    21    22   ar
    20    22    23    1
    21    22    24   ar
    22    24    25    1
    23     4     7    1
    24     7     8    1
    25    11    12   ar
    26    12    13   ar
    27    13    14   ar
    28    14    15    1
    29    14     9   ar
    30     8     1    1
    31    24    19   ar
@<TRIPOS>MOLECULE
*****
 29 31 0 0 0
SMALL
GASTEIGER

@<TRIPOS>ATOM
      1 N          63.5987   86.4556   14.3233 N.pl3   1  UNL1       -0.3040
      2 C          63.6961   87.3506   13.1235 C.3     1  UNL1        0.1123
      3 C          63.7905   88.8369   13.3022 C.3     1  UNL1        0.1149
      4 N          63.7875   89.4283   14.6807 N.am    1  UNL1       -0.2744
      5 C          63.8819   90.9146   14.8594 C.2     1  UNL1        0.2506
      6 O          63.8788   91.5059   16.2379 O.2     1  UNL1       -0.2727
      7 C          63.6901   88.5333   15.8805 C.3     1  UNL1        0.1149
      8 C          63.5957   87.0469   15.7018 C.3     1  UNL1        0.1123
      9 C          64.0526   82.8280   12.7791 C.ar    1  UNL1        0.1504
     10 C          64.1469   84.3143   12.9579 C.ar    1  UNL1        0.0523
     11 C          63.5043   84.9693   14.1445 C.ar    1  UNL1        0.0510
     12 C          62.7673   84.1380   15.1523 C.ar    1  UNL1        0.0156
     13 C          62.6730   82.6517   14.9736 C.ar    1  UNL1        0.0157
     14 C          63.3156   81.9967   13.7870 C.ar    1  UNL1        0.0916
     15 CL         63.2212   80.5103   13.6082 Cl      1  UNL1       -0.0791
     16 C          64.2959   82.5781   10.2046 C.3     1  UNL1        0.2525
     17 O          64.6952   82.1730   11.5925 O.3     1  UNL1       -0.4705
     18 C          63.9793   91.8096   13.6596 C.3     1  UNL1        0.2116
     19 N          65.2909   91.9732   12.9505 N.ar    1  UNL1       -0.2447
     20 N          65.4747   92.3967   11.5234 N.ar    1  UNL1       -0.1642
     21 C          66.9464   92.4274   11.2349 C.ar    1  UNL1        0.1837
     22 C          67.6721   92.0229   12.4838 C.ar    1  UNL1        0.0941
     23 CL         69.1598   91.9176   12.6442 Cl      1  UNL1       -0.0795
     24 C          66.6489   91.7422   13.5441 C.ar    1  UNL1        0.0685
     25 C          66.9338   91.3069   14.9510 C.3     1  UNL1        0.0527
     26 C          67.5810   92.7976    9.9271 C.3     1  UNL1        0.4373
     27 F          68.2156   93.1678    8.6193 F       1  UNL1       -0.1643
     28 F          67.1926   94.2301   10.1441 F       1  UNL1       -0.1643
     29 F          67.9694   91.3651    9.7101 F       1  UNL1       -0.1643
@<TRIPOS>BOND
     1    16    17    1
     2    17     9    1
     3     9    10   ar
     4    10    11   ar
     5    11     1    1
     6     1     2    1
     7     2     3    1
     8     3     4    1
     9     4     5   am
    10     5     6    2
    11     5    18    1
    12    18    19    1
    13    19    20   ar
    14    20    21   ar
    15    21    26    1
    16    26    27    1
    17    26    28    1
    18    26    29    1
    19    21    22   ar
    20    22    23    1
    21    22    24   ar
    22    24    25    1
    23     4     7    1
    24     7     8    1
    25    11    12   ar
    26    12    13   ar
    27    13    14   ar
    28    14    15    1
    29    14     9   ar
    30     8     1    1
    31    24    19   ar
@<TRIPOS>MOLECULE
*****
 29 31 0 0 0
SMALL
GASTEIGER

@<TRIPOS>ATOM
      1 N          63.4102   85.2271   13.1536 N.pl3   1  UNL1       -0.3040
      2 C          63.2867   86.4952   12.3620 C.3     1  UNL1        0.1123
      3 C          63.3524   87.8227   13.0572 C.3     1  UNL1        0.1149
      4 N          63.5415   87.8821   14.5441 N.am    1  UNL1       -0.2744
      5 C          63.6071   89.2096   15.2393 C.2     1  UNL1        0.2506
      6 O          63.7962   89.2690   16.7261 O.2     1  UNL1       -0.2727
      7 C          63.6649   86.6140   15.3357 C.3     1  UNL1        0.1149
      8 C          63.5992   85.2865   14.6404 C.3     1  UNL1        0.1123
      9 C          62.6232   81.4037   12.4377 C.ar    1  UNL1        0.1504
     10 C          62.6889   82.7312   13.1329 C.ar    1  UNL1        0.0523
     11 C          63.3445   83.8995   12.4583 C.ar    1  UNL1        0.0510
     12 C          63.9345   83.7403   11.0884 C.ar    1  UNL1        0.0156
     13 C          63.8688   82.4128   10.3932 C.ar    1  UNL1        0.0157
     14 C          63.2132   81.2445   11.0678 C.ar    1  UNL1        0.0916
     15 CL         63.1475   79.9170   10.3725 Cl      1  UNL1       -0.0791
     16 C          60.8526   80.4625   14.0897 C.3     1  UNL1        0.2525
     17 O          61.9675   80.2354   13.1123 O.3     1  UNL1       -0.4705
     18 C          63.4837   90.4778   14.4477 C.3     1  UNL1        0.2116
     19 N          64.7148   91.2377   14.0519 N.ar    1  UNL1       -0.2447
     20 N          65.8573   91.5974   14.9549 N.ar    1  UNL1       -0.1642
     21 C          66.8682   92.3533   14.1447 C.ar    1  UNL1        0.1837
     22 C          66.3506   92.4608   12.7408 C.ar    1  UNL1        0.0941
     23 CL         67.0424   93.1387   11.5955 Cl      1  UNL1       -0.0795
     24 C          65.0198   91.7713   12.6835 C.ar    1  UNL1        0.0685
     25 C          64.1470   91.6387   11.4708 C.3     1  UNL1        0.0527
     26 C          68.1686   92.9049   14.6496 C.3     1  UNL1        0.4373
     27 F          69.4689   93.4565   15.1544 F       1  UNL1       -0.1643
     28 F          68.9163   91.9549   13.7617 F       1  UNL1       -0.1643
     29 F          67.4208   93.8549   15.5374 F       1  UNL1       -0.1643
@<TRIPOS>BOND
     1    16    17    1
     2    17     9    1
     3     9    10   ar
     4    10    11   ar
     5    11     1    1
     6     1     2    1
     7     2     3    1
     8     3     4    1
     9     4     5   am
    10     5     6    2
    11     5    18    1
    12    18    19    1
    13    19    20   ar
    14    20    21   ar
    15    21    26    1
    16    26    27    1
    17    26    28    1
    18    26    29    1
    19    21    22   ar
    20    22    23    1
    21    22    24   ar
    22    24    25    1
    23     4     7    1
    24     7     8    1
    25    11    12   ar
    26    12    13   ar
    27    13    14   ar
    28    14    15    1
    29    14     9   ar
    30     8     1    1
    31    24    19   ar
@<TRIPOS>MOLECULE
*****
 29 31 0 0 0
SMALL
GASTEIGER

@<TRIPOS>ATOM
      1 N          63.4396   85.0851   12.7279 N.pl3   1  UNL1       -0.3040
      2 C          62.9873   86.2492   11.8970 C.3     1  UNL1        0.1123
      3 C          63.1113   87.6452   12.4314 C.3     1  UNL1        0.1149
      4 N          63.6876   87.8773   13.7967 N.am    1  UNL1       -0.2744
      5 C          63.8115   89.2734   14.3311 C.2     1  UNL1        0.2506
      6 O          64.3878   89.5054   15.6964 O.2     1  UNL1       -0.2727
      7 C          64.1398   86.7133   14.6277 C.3     1  UNL1        0.1149
      8 C          64.0159   85.3171   14.0932 C.3     1  UNL1        0.1123
      9 C          62.5121   81.2346   12.4764 C.ar    1  UNL1        0.1504
     10 C          62.6361   82.6307   13.0108 C.ar    1  UNL1        0.0523
     11 C          63.3156   83.6890   12.1935 C.ar    1  UNL1        0.0510
     12 C          63.8712   83.3513   10.8417 C.ar    1  UNL1        0.0156
     13 C          63.7472   81.9552   10.3074 C.ar    1  UNL1        0.0157
     14 C          63.0676   80.8969   11.1247 C.ar    1  UNL1        0.0916
     15 CL         62.9437   79.5008   10.5903 Cl      1  UNL1       -0.0791
     16 C          60.7102   80.5471   14.2173 C.3     1  UNL1        0.2525
     17 O          61.8325   80.1763   13.2938 O.3     1  UNL1       -0.4705
     18 C          63.3592   90.4374   13.5002 C.3     1  UNL1        0.2116
     19 N          64.3589   91.4428   13.0106 N.ar    1  UNL1       -0.2447
     20 N          64.5831   91.8392   11.5814 N.ar    1  UNL1       -0.1642
     21 C          65.6727   92.8697   11.5516 C.ar    1  UNL1        0.1837
     22 C          66.1220   93.1102   12.9625 C.ar    1  UNL1        0.0941
     23 CL         67.1948   94.0649   13.3956 Cl      1  UNL1       -0.0795
     24 C          65.3100   92.2283   13.8641 C.ar    1  UNL1        0.0685
     25 C          65.4283   92.1463   15.3572 C.3     1  UNL1        0.0527
     26 C          66.2174   93.5417   10.3262 C.3     1  UNL1        0.4373
     27 F          66.7622   94.2137    9.1008 F       1  UNL1       -0.1643
     28 F          67.2756   92.4842   10.2167 F       1  UNL1       -0.1643
     29 F          65.1592   94.5992   10.4357 F       1  UNL1       -0.1643
@<TRIPOS>BOND
     1    16    17    1
     2    17     9    1
     3     9    10   ar
     4    10    11   ar
     5    11     1    1
     6     1     2    1
     7     2     3    1
     8     3     4    1
     9     4     5   am
    10     5     6    2
    11     5    18    1
    12    18    19    1
    13    19    20   ar
    14    20    21   ar
    15    21    26    1
    16    26    27    1
    17    26    28    1
    18    26    29    1
    19    21    22   ar
    20    22    23    1
    21    22    24   ar
    22    24    25    1
    23     4     7    1
    24     7     8    1
    25    11    12   ar
    26    12    13   ar
    27    13    14   ar
    28    14    15    1
    29    14     9   ar
    30     8     1    1
    31    24    19   ar
@<TRIPOS>MOLECULE
*****
 29 31 0 0 0
SMALL
GASTEIGER

@<TRIPOS>ATOM
      1 N          63.2271   84.9523   14.4165 N.pl3   1  UNL1       -0.3040
      2 C          63.7824   86.0240   13.5259 C.3     1  UNL1        0.1123
      3 C          63.9492   87.4205   14.0472 C.3     1  UNL1        0.1149
      4 N          63.5607   87.7454   15.4591 N.am    1  UNL1       -0.2744
      5 C          63.7275   89.1420   15.9804 C.2     1  UNL1        0.2506
      6 O          63.3391   89.4669   17.3923 O.2     1  UNL1       -0.2727
      7 C          63.0055   86.6738   16.3497 C.3     1  UNL1        0.1149
      8 C          62.8387   85.2771   15.8284 C.3     1  UNL1        0.1123
      9 C          63.3337   81.8213   11.9802 C.ar    1  UNL1        0.1504
     10 C          63.5005   83.2178   12.5015 C.ar    1  UNL1        0.0523
     11 C          63.0603   83.5557   13.8951 C.ar    1  UNL1        0.0510
     12 C          62.4534   82.4970   14.7674 C.ar    1  UNL1        0.0156
     13 C          62.2866   81.1005   14.2460 C.ar    1  UNL1        0.0157
     14 C          62.7268   80.7626   12.8524 C.ar    1  UNL1        0.0916
     15 CL         62.5600   79.3660   12.3310 Cl      1  UNL1       -0.0791
     16 C          64.3827   82.5416    9.7151 C.3     1  UNL1        0.2525
     17 O          63.7739   81.4834   10.5866 O.3     1  UNL1       -0.4705
     18 C          64.2828   90.2137   15.0898 C.3     1  UNL1        0.2116
     19 N          63.7206   90.4107   13.7132 N.ar    1  UNL1       -0.2447
     20 N          62.4821   89.7653   13.1659 N.ar    1  UNL1       -0.1642
     21 C          62.2942   90.2434   11.7567 C.ar    1  UNL1        0.1837
     22 C          63.4167   91.1843   11.4329 C.ar    1  UNL1        0.0941
     23 CL         63.6216   91.8967   10.1289 Cl      1  UNL1       -0.0795
     24 C          64.2982   91.2877   12.6421 C.ar    1  UNL1        0.0685
     25 C          65.5394   92.1217   12.7596 C.3     1  UNL1        0.0527
     26 C          61.1796   89.8497   10.8332 C.3     1  UNL1        0.4373
     27 F          60.0650   89.4560    9.9098 F       1  UNL1       -0.1643
     28 F          62.1373   89.0188   10.0315 F       1  UNL1       -0.1643
     29 F          60.2220   90.6805   11.6349 F       1  UNL1       -0.1643
@<TRIPOS>BOND
     1    16    17    1
     2    17     9    1
     3     9    10   ar
     4    10    11   ar
     5    11     1    1
     6     1     2    1
     7     2     3    1
     8     3     4    1
     9     4     5   am
    10     5     6    2
    11     5    18    1
    12    18    19    1
    13    19    20   ar
    14    20    21   ar
    15    21    26    1
    16    26    27    1
    17    26    28    1
    18    26    29    1
    19    21    22   ar
    20    22    23    1
    21    22    24   ar
    22    24    25    1
    23     4     7    1
    24     7     8    1
    25    11    12   ar
    26    12    13   ar
    27    13    14   ar
    28    14    15    1
    29    14     9   ar
    30     8     1    1
    31    24    19   ar
