@<TRIPOS>MOLECULE
*****
 28 31 0 0 0
SMALL
GASTEIGER

@<TRIPOS>ATOM
      1 C          63.1317   80.9853   11.7139 C.3     1  UNL1        0.0310
      2 C          63.0228   82.4663   11.9252 C.ar    1  UNL1       -0.0216
      3 C          63.3276   83.0564   13.2701 C.ar    1  UNL1       -0.0001
      4 C          63.2186   84.5375   13.4815 C.ar    1  UNL1        0.0482
      5 C          62.8049   85.4284   12.3479 C.ar    1  UNL1        0.1467
      6 O          62.6120   86.9132   12.2571 O.2     1  UNL1       -0.4551
      7 C          62.1880   87.2407   10.8560 C.ar    1  UNL1        0.1531
      8 C          62.1188   85.9584   10.0809 C.ar    1  UNL1        0.0925
      9 CL         61.7357   85.8203    8.6373 Cl      1  UNL1       -0.0793
     10 C          62.5001   84.8383   11.0030 C.ar    1  UNL1        0.0475
     11 C          62.6090   83.3573   10.7917 C.ar    1  UNL1       -0.0003
     12 C          63.5235   85.1275   14.8265 C.2     1  UNL1        0.0758
     13 O          62.4901   85.0910   15.9131 O.co2   1  UNL1       -0.5445
     14 O          64.8616   85.7541   15.0848 O.co2   1  UNL1       -0.5445
     15 C          61.8862   88.6102   10.3236 C.3     1  UNL1        0.1559
     16 N          62.9152   89.6971   10.4231 N.am    1  UNL1       -0.2942
     17 C          63.1239   90.4155   11.7232 C.2     1  UNL1        0.2507
     18 O          62.3037   90.0470   12.9238 O.2     1  UNL1       -0.2700
     19 H          63.4535   89.9390    9.6351 H       1  UNL1        0.1501
     20 C          64.1529   91.5024   11.8227 C.ar    1  UNL1        0.1099
     21 C          64.6329   92.3679   10.6956 C.ar    1  UNL1        0.1281
     22 N          65.6591   93.3150   11.2431 N.ar    1  UNL1       -0.1619
     23 N          65.8134   93.0348   12.7086 N.ar    1  UNL1       -0.2105
     24 C          66.6812   93.6550   13.7632 C.ar    1  UNL1        0.1037
     25 C          66.6182   93.1550   15.1759 C.ar    1  UNL1        0.0414
     26 C          65.6873   92.0347   15.5341 C.ar    1  UNL1        0.1022
     27 N          64.8194   91.4145   14.4795 N.ar    1  UNL1       -0.2248
     28 C          64.8824   91.9145   13.0668 C.ar    1  UNL1        0.1697
@<TRIPOS>UNITY_ATOM_ATTR
13 1
charge -1
@<TRIPOS>BOND
     1     1     2    1
     2     2     3   ar
     3     3     4   ar
     4     4    12    1
     5    12    13   ar
     6    12    14   ar
     7     4     5   ar
     8     5     6   ar
     9     6     7   ar
    10     7    15    1
    11    15    16    1
    12    16    17   am
    13    17    18    2
    14    17    20    1
    15    20    21   ar
    16    21    22   ar
    17    22    23   ar
    18    23    24   ar
    19    24    25   ar
    20    25    26   ar
    21    26    27   ar
    22    27    28   ar
    23     7     8   ar
    24     8     9    1
    25     8    10   ar
    26    10    11   ar
    27    11     2   ar
    28    10     5   ar
    29    28    20   ar
    30    28    23   ar
    31    16    19    1
@<TRIPOS>MOLECULE
*****
 28 31 0 0 0
SMALL
GASTEIGER

@<TRIPOS>ATOM
      1 C          67.8304   93.4371   16.0358 C.3     1  UNL1        0.0310
      2 C          66.9312   92.9740   14.9281 C.ar    1  UNL1       -0.0216
      3 C          66.8809   93.7336   13.6357 C.ar    1  UNL1       -0.0001
      4 C          65.9817   93.2705   12.5280 C.ar    1  UNL1        0.0482
      5 C          65.1329   92.0477   12.7127 C.ar    1  UNL1        0.1467
      6 O          64.1575   91.3568   11.8066 O.2     1  UNL1       -0.4551
      7 C          63.6049   90.1700   12.5389 C.ar    1  UNL1        0.1531
      8 C          64.2388   90.1275   13.8977 C.ar    1  UNL1        0.0925
      9 CL         63.9748   89.1042   14.9622 Cl      1  UNL1       -0.0793
     10 C          65.1832   91.2881   14.0051 C.ar    1  UNL1        0.0475
     11 C          66.0824   91.7512   15.1128 C.ar    1  UNL1       -0.0003
     12 C          65.9314   94.0303   11.2356 C.2     1  UNL1        0.0758
     13 O          65.7125   95.5142   11.2459 O.co2   1  UNL1       -0.5445
     14 O          66.1001   93.3061    9.9328 O.co2   1  UNL1       -0.5445
     15 C          62.5956   89.1966   12.0060 C.3     1  UNL1        0.1559
     16 N          62.8316   87.7216   12.1422 N.am    1  UNL1       -0.2942
     17 C          62.4914   86.7998   11.0089 C.2     1  UNL1        0.2507
     18 O          61.9151   87.3530    9.7394 O.2     1  UNL1       -0.2700
     19 H          63.2099   87.3585   12.9755 H       1  UNL1        0.1501
     20 C          62.7274   85.3247   11.1451 C.ar    1  UNL1        0.1099
     21 C          63.0909   84.3839   10.0350 C.ar    1  UNL1        0.1281
     22 N          63.2295   83.0092   10.6192 N.ar    1  UNL1       -0.1619
     23 N          62.9516   83.1006   12.0903 N.ar    1  UNL1       -0.2105
     24 C          62.9410   82.0656   13.1760 C.ar    1  UNL1        0.1037
     25 C          62.6201   82.4617   14.5867 C.ar    1  UNL1        0.0414
     26 C          62.3098   83.8928   14.9118 C.ar    1  UNL1        0.1022
     27 N          62.3204   84.9277   13.8261 N.ar    1  UNL1       -0.2248
     28 C          62.6413   84.5317   12.4154 C.ar    1  UNL1        0.1697
@<TRIPOS>UNITY_ATOM_ATTR
13 1
charge -1
@<TRIPOS>BOND
     1     1     2    1
     2     2     3   ar
     3     3     4   ar
     4     4    12    1
     5    12    13   ar
     6    12    14   ar
     7     4     5   ar
     8     5     6   ar
     9     6     7   ar
    10     7    15    1
    11    15    16    1
    12    16    17   am
    13    17    18    2
    14    17    20    1
    15    20    21   ar
    16    21    22   ar
    17    22    23   ar
    18    23    24   ar
    19    24    25   ar
    20    25    26   ar
    21    26    27   ar
    22    27    28   ar
    23     7     8   ar
    24     8     9    1
    25     8    10   ar
    26    10    11   ar
    27    11     2   ar
    28    10     5   ar
    29    28    20   ar
    30    28    23   ar
    31    16    19    1
@<TRIPOS>MOLECULE
*****
 28 31 0 0 0
SMALL
GASTEIGER

@<TRIPOS>ATOM
      1 C          66.8280   95.0947   10.7814 C.3     1  UNL1        0.0310
      2 C          66.1560   93.9485   11.4775 C.ar    1  UNL1       -0.0216
      3 C          66.5077   93.6242   12.8992 C.ar    1  UNL1       -0.0001
      4 C          65.8357   92.4780   13.5953 C.ar    1  UNL1        0.0482
      5 C          64.8119   91.6562   12.8698 C.ar    1  UNL1        0.1467
      6 O          63.9894   90.4753   13.2930 O.2     1  UNL1       -0.4551
      7 C          63.1293   90.0698   12.1329 C.ar    1  UNL1        0.1531
      8 C          63.4202   91.0000   10.9927 C.ar    1  UNL1        0.0925
      9 CL         62.7832   90.9574    9.6354 Cl      1  UNL1       -0.0793
     10 C          64.4602   91.9805   11.4482 C.ar    1  UNL1        0.0475
     11 C          65.1322   93.1267   10.7521 C.ar    1  UNL1       -0.0003
     12 C          66.1875   92.1537   15.0170 C.2     1  UNL1        0.0758
     13 O          67.5501   91.6224   15.3499 O.co2   1  UNL1       -0.5445
     14 O          65.1766   92.3608   16.1057 O.co2   1  UNL1       -0.5445
     15 C          62.1502   88.9335   12.1159 C.3     1  UNL1        0.1559
     16 N          62.6445   87.5173   12.1259 N.am    1  UNL1       -0.2942
     17 C          62.2621   86.5816   11.0177 C.2     1  UNL1        0.2507
     18 O          61.3854   87.0621    9.8995 O.2     1  UNL1       -0.2700
     19 H          63.2200   87.2020   12.8598 H       1  UNL1        0.1501
     20 C          62.7565   85.1655   11.0276 C.ar    1  UNL1        0.1099
     21 C          63.3012   84.4136    9.8497 C.ar    1  UNL1        0.1281
     22 N          63.6743   83.0360   10.3113 N.ar    1  UNL1       -0.1619
     23 N          63.3601   82.9366   11.7747 N.ar    1  UNL1       -0.2105
     24 C          63.5172   81.8177   12.7612 C.ar    1  UNL1        0.1037
     25 C          63.1070   82.0148   14.1905 C.ar    1  UNL1        0.0414
     26 C          62.5398   83.3310   14.6332 C.ar    1  UNL1        0.1022
     27 N          62.3827   84.4499   13.6466 N.ar    1  UNL1       -0.2248
     28 C          62.7928   84.2527   12.2174 C.ar    1  UNL1        0.1697
@<TRIPOS>UNITY_ATOM_ATTR
13 1
charge -1
@<TRIPOS>BOND
     1     1     2    1
     2     2     3   ar
     3     3     4   ar
     4     4    12    1
     5    12    13   ar
     6    12    14   ar
     7     4     5   ar
     8     5     6   ar
     9     6     7   ar
    10     7    15    1
    11    15    16    1
    12    16    17   am
    13    17    18    2
    14    17    20    1
    15    20    21   ar
    16    21    22   ar
    17    22    23   ar
    18    23    24   ar
    19    24    25   ar
    20    25    26   ar
    21    26    27   ar
    22    27    28   ar
    23     7     8   ar
    24     8     9    1
    25     8    10   ar
    26    10    11   ar
    27    11     2   ar
    28    10     5   ar
    29    28    20   ar
    30    28    23   ar
    31    16    19    1
@<TRIPOS>MOLECULE
*****
 28 31 0 0 0
SMALL
GASTEIGER

@<TRIPOS>ATOM
      1 C          61.6035   84.4218    6.1914 C.3     1  UNL1        0.0310
      2 C          61.8665   85.0483    7.5287 C.ar    1  UNL1       -0.0216
      3 C          62.6421   84.2967    8.5695 C.ar    1  UNL1       -0.0001
      4 C          62.9051   84.9232    9.9068 C.ar    1  UNL1        0.0482
      5 C          62.3925   86.3013   10.2033 C.ar    1  UNL1        0.1467
      6 O          62.4950   87.1698   11.4220 O.2     1  UNL1       -0.4551
      7 C          61.7828   88.4582   11.1343 C.ar    1  UNL1        0.1531
      8 C          61.2401   88.3860    9.7378 C.ar    1  UNL1        0.0925
      9 CL         60.4579   89.4586    9.0393 Cl      1  UNL1       -0.0793
     10 C          61.6169   87.0529    9.1624 C.ar    1  UNL1        0.0475
     11 C          61.3539   86.4265    7.8251 C.ar    1  UNL1       -0.0003
     12 C          63.6807   84.1714   10.9477 C.2     1  UNL1        0.0758
     13 O          63.4057   84.4067   12.4034 O.co2   1  UNL1       -0.5445
     14 O          64.7313   83.1845   10.5329 O.co2   1  UNL1       -0.5445
     15 C          61.6387   89.6156   12.0776 C.3     1  UNL1        0.1559
     16 N          62.8493   90.3943   12.4997 N.am    1  UNL1       -0.2942
     17 C          63.5729   91.2532   11.5054 C.2     1  UNL1        0.2507
     18 O          63.0859   91.3333   10.0889 O.2     1  UNL1       -0.2700
     19 H          63.1689   90.3417   13.4294 H       1  UNL1        0.1501
     20 C          64.7834   92.0319   11.9275 C.ar    1  UNL1        0.1099
     21 C          65.7154   92.7748   11.0169 C.ar    1  UNL1        0.1281
     22 N          66.7825   93.4064   11.8609 N.ar    1  UNL1       -0.1619
     23 N          66.5099   93.0538   13.2932 N.ar    1  UNL1       -0.2105
     24 C          67.2271   93.3966   14.5652 C.ar    1  UNL1        0.1037
     25 C          66.7088   92.8898   15.8784 C.ar    1  UNL1        0.0414
     26 C          65.4732   92.0403   15.9195 C.ar    1  UNL1        0.1022
     27 N          64.7561   91.6975   14.6475 N.ar    1  UNL1       -0.2248
     28 C          65.2744   92.2043   13.3343 C.ar    1  UNL1        0.1697
@<TRIPOS>UNITY_ATOM_ATTR
13 1
charge -1
@<TRIPOS>BOND
     1     1     2    1
     2     2     3   ar
     3     3     4   ar
     4     4    12    1
     5    12    13   ar
     6    12    14   ar
     7     4     5   ar
     8     5     6   ar
     9     6     7   ar
    10     7    15    1
    11    15    16    1
    12    16    17   am
    13    17    18    2
    14    17    20    1
    15    20    21   ar
    16    21    22   ar
    17    22    23   ar
    18    23    24   ar
    19    24    25   ar
    20    25    26   ar
    21    26    27   ar
    22    27    28   ar
    23     7     8   ar
    24     8     9    1
    25     8    10   ar
    26    10    11   ar
    27    11     2   ar
    28    10     5   ar
    29    28    20   ar
    30    28    23   ar
    31    16    19    1
@<TRIPOS>MOLECULE
*****
 28 31 0 0 0
SMALL
GASTEIGER

@<TRIPOS>ATOM
      1 C          65.7185   94.3526   10.3931 C.3     1  UNL1        0.0310
      2 C          65.7186   93.4387   11.5826 C.ar    1  UNL1       -0.0216
      3 C          66.6361   93.7111   12.7376 C.ar    1  UNL1       -0.0001
      4 C          66.6363   92.7972   13.9270 C.ar    1  UNL1        0.0482
      5 C          65.7189   91.6110   13.9616 C.ar    1  UNL1        0.1467
      6 O          65.4987   90.5420   14.9905 O.2     1  UNL1       -0.4551
      7 C          64.4451   89.6089   14.4715 C.ar    1  UNL1        0.1531
      8 C          64.0141   90.1012   13.1217 C.ar    1  UNL1        0.0925
      9 CL         62.9779   89.4675   12.2417 Cl      1  UNL1       -0.0793
     10 C          64.8014   91.3386   12.8066 C.ar    1  UNL1        0.0475
     11 C          64.8013   92.2525   11.6171 C.ar    1  UNL1       -0.0003
     12 C          67.5538   93.0696   15.0820 C.2     1  UNL1        0.0758
     13 O          69.0310   93.1942   14.8532 O.co2   1  UNL1       -0.5445
     14 O          66.9942   93.2174   16.4658 O.co2   1  UNL1       -0.5445
     15 C          63.9155   88.3964   15.1782 C.3     1  UNL1        0.1559
     16 N          63.9876   87.0518   14.5172 N.am    1  UNL1       -0.2942
     17 C          63.6626   85.8135   15.2987 C.2     1  UNL1        0.2507
     18 O          63.2656   85.9197   16.7413 O.2     1  UNL1       -0.2700
     19 H          64.2481   86.9821   13.5703 H       1  UNL1        0.1501
     20 C          63.7347   84.4689   14.6377 C.ar    1  UNL1        0.1099
     21 C          64.0004   83.1621   15.3243 C.ar    1  UNL1        0.1281
     22 N          63.9836   82.0806   14.2849 N.ar    1  UNL1       -0.1619
     23 N          63.7075   82.7192   12.9560 N.ar    1  UNL1       -0.2105
     24 C          63.5763   82.1473   11.5755 C.ar    1  UNL1        0.1037
     25 C          63.2913   83.0514   10.4131 C.ar    1  UNL1        0.0414
     26 C          63.1375   84.5274   10.6311 C.ar    1  UNL1        0.1022
     27 N          63.2687   85.0994   12.0116 N.ar    1  UNL1       -0.2248
     28 C          63.5537   84.1953   13.1741 C.ar    1  UNL1        0.1697
@<TRIPOS>UNITY_ATOM_ATTR
13 1
charge -1
@<TRIPOS>BOND
     1     1     2    1
     2     2     3   ar
     3     3     4   ar
     4     4    12    1
     5    12    13   ar
     6    12    14   ar
     7     4     5   ar
     8     5     6   ar
     9     6     7   ar
    10     7    15    1
    11    15    16    1
    12    16    17   am
    13    17    18    2
    14    17    20    1
    15    20    21   ar
    16    21    22   ar
    17    22    23   ar
    18    23    24   ar
    19    24    25   ar
    20    25    26   ar
    21    26    27   ar
    22    27    28   ar
    23     7     8   ar
    24     8     9    1
    25     8    10   ar
    26    10    11   ar
    27    11     2   ar
    28    10     5   ar
    29    28    20   ar
    30    28    23   ar
    31    16    19    1
@<TRIPOS>MOLECULE
*****
 28 31 0 0 0
SMALL
GASTEIGER

@<TRIPOS>ATOM
      1 C          62.3653   84.3092    6.0571 C.3     1  UNL1        0.0310
      2 C          62.3603   84.8793    7.4445 C.ar    1  UNL1       -0.0216
      3 C          63.0273   84.1356    8.5634 C.ar    1  UNL1       -0.0001
      4 C          63.0223   84.7057    9.9508 C.ar    1  UNL1        0.0482
      5 C          62.3504   86.0196   10.2193 C.ar    1  UNL1        0.1467
      6 O          62.1848   86.8243   11.4743 O.2     1  UNL1       -0.4551
      7 C          61.4154   88.0654   11.1311 C.ar    1  UNL1        0.1531
      8 C          61.1055   88.0278    9.6639 C.ar    1  UNL1        0.0925
      9 CL         60.3504   89.0712    8.8952 Cl      1  UNL1       -0.0793
     10 C          61.6834   86.7633    9.1004 C.ar    1  UNL1        0.0475
     11 C          61.6884   86.1932    7.7130 C.ar    1  UNL1       -0.0003
     12 C          63.6894   83.9620   11.0697 C.2     1  UNL1        0.0758
     13 O          64.8107   83.0105   10.7742 O.co2   1  UNL1       -0.5445
     14 O          63.2351   84.1697   12.4841 O.co2   1  UNL1       -0.5445
     15 C          61.0246   89.1532   12.0872 C.3     1  UNL1        0.1559
     16 N          62.0090   90.2272   12.4443 N.am    1  UNL1       -0.2942
     17 C          63.2084   89.8966   13.2821 C.2     1  UNL1        0.2507
     18 O          63.4235   88.4921   13.7628 O.2     1  UNL1       -0.2700
     19 H          61.8678   91.1490   12.1289 H       1  UNL1        0.1501
     20 C          64.1928   90.9706   13.6393 C.ar    1  UNL1        0.1099
     21 C          64.7041   91.2754   15.0161 C.ar    1  UNL1        0.1281
     22 N          65.6660   92.4215   14.9101 N.ar    1  UNL1       -0.1619
     23 N          65.7492   92.8249   13.4678 N.ar    1  UNL1       -0.2105
     24 C          66.5364   93.8929   12.7681 C.ar    1  UNL1        0.1037
     25 C          66.4132   94.0643   11.2831 C.ar    1  UNL1        0.0414
     26 C          65.5027   93.1676   10.4977 C.ar    1  UNL1        0.1022
     27 N          64.7155   92.0995   11.1974 N.ar    1  UNL1       -0.2248
     28 C          64.8387   91.9281   12.6824 C.ar    1  UNL1        0.1697
@<TRIPOS>UNITY_ATOM_ATTR
13 1
charge -1
@<TRIPOS>BOND
     1     1     2    1
     2     2     3   ar
     3     3     4   ar
     4     4    12    1
     5    12    13   ar
     6    12    14   ar
     7     4     5   ar
     8     5     6   ar
     9     6     7   ar
    10     7    15    1
    11    15    16    1
    12    16    17   am
    13    17    18    2
    14    17    20    1
    15    20    21   ar
    16    21    22   ar
    17    22    23   ar
    18    23    24   ar
    19    24    25   ar
    20    25    26   ar
    21    26    27   ar
    22    27    28   ar
    23     7     8   ar
    24     8     9    1
    25     8    10   ar
    26    10    11   ar
    27    11     2   ar
    28    10     5   ar
    29    28    20   ar
    30    28    23   ar
    31    16    19    1
@<TRIPOS>MOLECULE
*****
 28 31 0 0 0
SMALL
GASTEIGER

@<TRIPOS>ATOM
      1 C          68.5582   92.6364   15.6391 C.3     1  UNL1        0.0310
      2 C          67.4431   92.2996   14.6940 C.ar    1  UNL1       -0.0216
      3 C          67.4435   92.8612   13.3031 C.ar    1  UNL1       -0.0001
      4 C          66.3284   92.5243   12.3580 C.ar    1  UNL1        0.0482
      5 C          65.2130   91.6259   12.8037 C.ar    1  UNL1        0.1467
      6 O          63.9884   91.1212   12.0998 O.2     1  UNL1       -0.4551
      7 C          63.2312   90.2476   13.0556 C.ar    1  UNL1        0.1531
      8 C          63.9878   90.2125   14.3503 C.ar    1  UNL1        0.0925
      9 CL         63.5896   89.4580   15.5840 Cl      1  UNL1       -0.0793
     10 C          65.2127   91.0643   14.1946 C.ar    1  UNL1        0.0475
     11 C          66.3278   91.4012   15.1397 C.ar    1  UNL1       -0.0003
     12 C          66.3288   93.0860   10.9671 C.2     1  UNL1        0.0758
     13 O          65.3853   94.1947   10.6057 O.co2   1  UNL1       -0.5445
     14 O          67.2726   92.5389    9.9376 O.co2   1  UNL1       -0.5445
     15 C          61.9434   89.5345   12.7673 C.3     1  UNL1        0.1559
     16 N          61.7533   88.8301   11.4566 N.am    1  UNL1       -0.2942
     17 C          60.3946   88.3307   11.0637 C.2     1  UNL1        0.2507
     18 O          59.2260   88.5357   11.9814 O.2     1  UNL1       -0.2700
     19 H          62.5204   88.6956   10.8543 H       1  UNL1        0.1501
     20 C          60.2045   87.6264    9.7531 C.ar    1  UNL1        0.1099
     21 C          59.0223   87.7659    8.8406 C.ar    1  UNL1        0.1281
     22 N          59.2504   86.8847    7.6484 N.ar    1  UNL1       -0.1619
     23 N          60.5737   86.2006    7.8241 N.ar    1  UNL1       -0.2105
     24 C          61.3179   85.2194    6.9676 C.ar    1  UNL1        0.1037
     25 C          62.6518   84.6967    7.4119 C.ar    1  UNL1        0.0414
     26 C          63.2415   85.1552    8.7127 C.ar    1  UNL1        0.1022
     27 N          62.4973   86.1363    9.5692 N.ar    1  UNL1       -0.2248
     28 C          61.1634   86.6591    9.1249 C.ar    1  UNL1        0.1697
@<TRIPOS>UNITY_ATOM_ATTR
13 1
charge -1
@<TRIPOS>BOND
     1     1     2    1
     2     2     3   ar
     3     3     4   ar
     4     4    12    1
     5    12    13   ar
     6    12    14   ar
     7     4     5   ar
     8     5     6   ar
     9     6     7   ar
    10     7    15    1
    11    15    16    1
    12    16    17   am
    13    17    18    2
    14    17    20    1
    15    20    21   ar
    16    21    22   ar
    17    22    23   ar
    18    23    24   ar
    19    24    25   ar
    20    25    26   ar
    21    26    27   ar
    22    27    28   ar
    23     7     8   ar
    24     8     9    1
    25     8    10   ar
    26    10    11   ar
    27    11     2   ar
    28    10     5   ar
    29    28    20   ar
    30    28    23   ar
    31    16    19    1
@<TRIPOS>MOLECULE
*****
 28 31 0 0 0
SMALL
GASTEIGER

@<TRIPOS>ATOM
      1 C          66.8601   94.9789   10.2765 C.3     1  UNL1        0.0310
      2 C          66.2002   93.9421   11.1364 C.ar    1  UNL1       -0.0216
      3 C          66.5691   93.8241   12.5855 C.ar    1  UNL1       -0.0001
      4 C          65.9093   92.7873   13.4454 C.ar    1  UNL1        0.0482
      5 C          64.8805   91.8684   12.8563 C.ar    1  UNL1        0.1467
      6 O          64.0673   90.7580   13.4527 O.2     1  UNL1       -0.4551
      7 C          63.1957   90.1897   12.3723 C.ar    1  UNL1        0.1531
      8 C          63.4703   90.9488   11.1080 C.ar    1  UNL1        0.0925
      9 CL         62.8181   90.7121    9.7781 Cl      1  UNL1       -0.0793
     10 C          64.5116   91.9863   11.4072 C.ar    1  UNL1        0.0475
     11 C          65.1714   93.0232   10.5473 C.ar    1  UNL1       -0.0003
     12 C          66.2783   92.6694   14.8946 C.2     1  UNL1        0.0758
     13 O          65.2146   92.4142   15.9210 O.co2   1  UNL1       -0.5445
     14 O          67.7109   92.8066   15.3173 O.co2   1  UNL1       -0.5445
     15 C          62.2207   89.0605   12.5286 C.3     1  UNL1        0.1559
     16 N          61.8710   88.2028   11.3488 N.am    1  UNL1       -0.2942
     17 C          60.6271   88.4845   10.5592 C.2     1  UNL1        0.2507
     18 O          59.7330   89.6238   10.9495 O.2     1  UNL1       -0.2700
     19 H          62.4578   87.4550   11.0926 H       1  UNL1        0.1501
     20 C          60.2774   87.6268    9.3793 C.ar    1  UNL1        0.1099
     21 C          58.9654   87.6201    8.6523 C.ar    1  UNL1        0.1281
     22 N          59.0554   86.6144    7.5430 N.ar    1  UNL1       -0.1619
     23 N          60.4230   85.9996    7.5845 N.ar    1  UNL1       -0.2105
     24 C          61.0782   84.9509    6.7355 C.ar    1  UNL1        0.1037
     25 C          62.4886   84.5279    7.0214 C.ar    1  UNL1        0.0414
     26 C          63.2438   85.1536    8.1563 C.ar    1  UNL1        0.1022
     27 N          62.5886   86.2023    9.0053 N.ar    1  UNL1       -0.2248
     28 C          61.1782   86.6254    8.7195 C.ar    1  UNL1        0.1697
@<TRIPOS>UNITY_ATOM_ATTR
13 1
charge -1
@<TRIPOS>BOND
     1     1     2    1
     2     2     3   ar
     3     3     4   ar
     4     4    12    1
     5    12    13   ar
     6    12    14   ar
     7     4     5   ar
     8     5     6   ar
     9     6     7   ar
    10     7    15    1
    11    15    16    1
    12    16    17   am
    13    17    18    2
    14    17    20    1
    15    20    21   ar
    16    21    22   ar
    17    22    23   ar
    18    23    24   ar
    19    24    25   ar
    20    25    26   ar
    21    26    27   ar
    22    27    28   ar
    23     7     8   ar
    24     8     9    1
    25     8    10   ar
    26    10    11   ar
    27    11     2   ar
    28    10     5   ar
    29    28    20   ar
    30    28    23   ar
    31    16    19    1
@<TRIPOS>MOLECULE
*****
 28 31 0 0 0
SMALL
GASTEIGER

@<TRIPOS>ATOM
      1 C          66.8175   95.4390    9.7950 C.3     1  UNL1        0.0310
      2 C          66.2979   94.3951   10.7386 C.ar    1  UNL1       -0.0216
      3 C          66.7860   94.3560   12.1564 C.ar    1  UNL1       -0.0001
      4 C          66.2663   93.3121   13.1000 C.ar    1  UNL1        0.0482
      5 C          65.2586   92.3074   12.6257 C.ar    1  UNL1        0.1467
      6 O          64.5707   91.1704   13.3215 O.2     1  UNL1       -0.4551
      7 C          63.6575   90.5068   12.3337 C.ar    1  UNL1        0.1531
      8 C          63.7809   91.2337   11.0274 C.ar    1  UNL1        0.0925
      9 CL         63.0442   90.9054    9.7627 Cl      1  UNL1       -0.0793
     10 C          64.7705   92.3465   11.2079 C.ar    1  UNL1        0.0475
     11 C          65.2901   93.3904   10.2644 C.ar    1  UNL1       -0.0003
     12 C          66.7545   93.2730   14.5178 C.2     1  UNL1        0.0758
     13 O          68.2155   93.4417   14.8129 O.co2   1  UNL1       -0.5445
     14 O          65.7817   93.0652   15.6405 O.co2   1  UNL1       -0.5445
     15 C          62.7756   89.3240   12.6047 C.3     1  UNL1        0.1559
     16 N          63.3434   88.0996   13.2592 N.am    1  UNL1       -0.2942
     17 C          63.0602   86.7429   12.6855 C.2     1  UNL1        0.2507
     18 O          62.2093   86.6106   11.4573 O.2     1  UNL1       -0.2700
     19 H          63.9018   88.1864   14.0653 H       1  UNL1        0.1501
     20 C          63.6280   85.5184   13.3400 C.ar    1  UNL1        0.1099
     21 C          64.5397   85.4977   14.5308 C.ar    1  UNL1        0.1281
     22 N          64.8589   84.0662   14.8453 N.ar    1  UNL1       -0.1619
     23 N          64.1444   83.2022   13.8488 N.ar    1  UNL1       -0.2105
     24 C          64.0881   81.7142   13.6684 C.ar    1  UNL1        0.1037
     25 C          63.2712   81.1237   12.5576 C.ar    1  UNL1        0.0414
     26 C          62.5105   82.0212   11.6272 C.ar    1  UNL1        0.1022
     27 N          62.5667   83.5093   11.8077 N.ar    1  UNL1       -0.2248
     28 C          63.3836   84.0998   12.9185 C.ar    1  UNL1        0.1697
@<TRIPOS>UNITY_ATOM_ATTR
13 1
charge -1
@<TRIPOS>BOND
     1     1     2    1
     2     2     3   ar
     3     3     4   ar
     4     4    12    1
     5    12    13   ar
     6    12    14   ar
     7     4     5   ar
     8     5     6   ar
     9     6     7   ar
    10     7    15    1
    11    15    16    1
    12    16    17   am
    13    17    18    2
    14    17    20    1
    15    20    21   ar
    16    21    22   ar
    17    22    23   ar
    18    23    24   ar
    19    24    25   ar
    20    25    26   ar
    21    26    27   ar
    22    27    28   ar
    23     7     8   ar
    24     8     9    1
    25     8    10   ar
    26    10    11   ar
    27    11     2   ar
    28    10     5   ar
    29    28    20   ar
    30    28    23   ar
    31    16    19    1
