@<TRIPOS>MOLECULE
*****
 12 13 0 0 0
SMALL
GASTEIGER

@<TRIPOS>ATOM
      1 C          68.1523   92.0437    9.7460 C.3     1  UNL1        0.0899
      2 N          67.5219   93.4025    9.8252 N.3     1  UNL1       -0.2691
      3 C          68.0115   94.6429    9.1384 C.3     1  UNL1        0.0724
      4 C          67.0834   95.7665    9.4938 C.3     1  UNL1        0.0191
      5 C          66.0203   95.2204   10.4003 C.3     1  UNL1        0.0220
      6 C          66.2913   93.7594   10.6051 C.3     1  UNL1        0.0817
      7 C          65.4750   92.8202   11.4427 C.ar    1  UNL1        0.0114
      8 C          64.4465   91.9401   10.7966 C.ar    1  UNL1        0.0002
      9 C          63.6302   91.0010   11.6343 C.ar    1  UNL1        0.0204
     10 C          63.8425   90.9419   13.1180 C.ar    1  UNL1        0.0989
     11 N          64.8710   91.8220   13.7641 N.ar    1  UNL1       -0.2426
     12 C          65.6873   92.7611   12.9264 C.ar    1  UNL1        0.0959
@<TRIPOS>BOND
     1     1     2    1
     2     2     3    1
     3     3     4    1
     4     4     5    1
     5     5     6    1
     6     6     7    1
     7     7     8   ar
     8     8     9   ar
     9     9    10   ar
    10    10    11   ar
    11    11    12   ar
    12     6     2    1
    13    12     7   ar
@<TRIPOS>MOLECULE
*****
 12 13 0 0 0
SMALL
GASTEIGER

@<TRIPOS>ATOM
      1 C          67.7011   92.3785   14.2459 C.3     1  UNL1        0.0899
      2 N          66.3758   91.9305   13.7049 N.3     1  UNL1       -0.2691
      3 C          65.3824   91.0596   14.4154 C.3     1  UNL1        0.0724
      4 C          64.2037   90.8655   13.5082 C.3     1  UNL1        0.0191
      5 C          64.4686   91.6164   12.2370 C.3     1  UNL1        0.0220
      6 C          65.8111   92.2746   12.3586 C.3     1  UNL1        0.0817
      7 C          66.4726   93.1273   11.3167 C.ar    1  UNL1        0.0114
      8 C          67.3351   92.4935   10.2658 C.ar    1  UNL1        0.0002
      9 C          67.9965   93.3461    9.2240 C.ar    1  UNL1        0.0204
     10 C          67.7955   94.8325    9.2331 C.ar    1  UNL1        0.0989
     11 N          66.9331   95.4663   10.2840 N.ar    1  UNL1       -0.2426
     12 C          66.2716   94.6137   11.3258 C.ar    1  UNL1        0.0959
@<TRIPOS>BOND
     1     1     2    1
     2     2     3    1
     3     3     4    1
     4     4     5    1
     5     5     6    1
     6     6     7    1
     7     7     8   ar
     8     8     9   ar
     9     9    10   ar
    10    10    11   ar
    11    11    12   ar
    12     6     2    1
    13    12     7   ar
@<TRIPOS>MOLECULE
*****
 12 13 0 0 0
SMALL
GASTEIGER

@<TRIPOS>ATOM
      1 C          63.9677   85.1908   13.9624 C.3     1  UNL1        0.0899
      2 N          63.5138   83.8363   13.5049 N.3     1  UNL1       -0.2691
      3 C          63.5840   82.5674   14.3017 C.3     1  UNL1        0.0724
      4 C          63.0236   81.4597   13.4596 C.3     1  UNL1        0.0191
      5 C          62.6071   82.0441   12.1424 C.3     1  UNL1        0.0220
      6 C          62.9100   83.5130   12.1705 C.3     1  UNL1        0.0817
      7 C          62.6541   84.4874   11.0591 C.ar    1  UNL1        0.0114
      8 C          63.3366   84.3111    9.7351 C.ar    1  UNL1        0.0002
      9 C          63.0806   85.2855    8.6238 C.ar    1  UNL1        0.0204
     10 C          62.1422   86.4361    8.8365 C.ar    1  UNL1        0.0989
     11 N          61.4597   86.6124   10.1605 N.ar    1  UNL1       -0.2426
     12 C          61.7156   85.6381   11.2718 C.ar    1  UNL1        0.0959
@<TRIPOS>BOND
     1     1     2    1
     2     2     3    1
     3     3     4    1
     4     4     5    1
     5     5     6    1
     6     6     7    1
     7     7     8   ar
     8     8     9   ar
     9     9    10   ar
    10    10    11   ar
    11    11    12   ar
    12     6     2    1
    13    12     7   ar
@<TRIPOS>MOLECULE
*****
 12 13 0 0 0
SMALL
GASTEIGER

@<TRIPOS>ATOM
      1 C          62.5660   89.7443   12.3414 C.3     1  UNL1        0.0899
      2 N          63.7518   90.4029   12.9818 N.3     1  UNL1       -0.2691
      3 C          64.4798   91.6065   12.4609 C.3     1  UNL1        0.0724
      4 C          65.5958   91.9211   13.4127 C.3     1  UNL1        0.0191
      5 C          65.5573   90.9119   14.5218 C.3     1  UNL1        0.0220
      6 C          64.4176   89.9737   14.2555 C.3     1  UNL1        0.0817
      7 C          64.0147   88.8103   15.1125 C.ar    1  UNL1        0.0114
      8 C          63.2780   89.0453   16.3978 C.ar    1  UNL1        0.0002
      9 C          62.8751   87.8820   17.2547 C.ar    1  UNL1        0.0204
     10 C          63.2088   86.4838   16.8263 C.ar    1  UNL1        0.0989
     11 N          63.9454   86.2488   15.5410 N.ar    1  UNL1       -0.2426
     12 C          64.3484   87.4121   14.6841 C.ar    1  UNL1        0.0959
@<TRIPOS>BOND
     1     1     2    1
     2     2     3    1
     3     3     4    1
     4     4     5    1
     5     5     6    1
     6     6     7    1
     7     7     8   ar
     8     8     9   ar
     9     9    10   ar
    10    10    11   ar
    11    11    12   ar
    12     6     2    1
    13    12     7   ar
@<TRIPOS>MOLECULE
*****
 12 13 0 0 0
SMALL
GASTEIGER

@<TRIPOS>ATOM
      1 C          64.2625   82.6138   11.0186 C.3     1  UNL1        0.0899
      2 N          63.3986   82.1266   12.1438 N.3     1  UNL1       -0.2691
      3 C          62.7711   80.7682   12.2492 C.3     1  UNL1        0.0724
      4 C          61.9951   80.7143   13.5318 C.3     1  UNL1        0.0191
      5 C          62.1430   82.0394   14.2190 C.3     1  UNL1        0.0220
      6 C          63.0104   82.9122   13.3612 C.3     1  UNL1        0.0817
      7 C          63.4180   84.3230   13.6672 C.ar    1  UNL1        0.0114
      8 C          64.2388   84.6187   14.8874 C.ar    1  UNL1        0.0002
      9 C          64.6464   86.0295   15.1933 C.ar    1  UNL1        0.0204
     10 C          64.2332   87.1445   14.2790 C.ar    1  UNL1        0.0989
     11 N          63.4125   86.8488   13.0588 N.ar    1  UNL1       -0.2426
     12 C          63.0049   85.4381   12.7529 C.ar    1  UNL1        0.0959
@<TRIPOS>BOND
     1     1     2    1
     2     2     3    1
     3     3     4    1
     4     4     5    1
     5     5     6    1
     6     6     7    1
     7     7     8   ar
     8     8     9   ar
     9     9    10   ar
    10    10    11   ar
    11    11    12   ar
    12     6     2    1
    13    12     7   ar
@<TRIPOS>MOLECULE
*****
 12 13 0 0 0
SMALL
GASTEIGER

@<TRIPOS>ATOM
      1 C          62.3613   88.8092   10.7139 C.3     1  UNL1        0.0899
      2 N          61.4252   88.1584    9.7392 N.3     1  UNL1       -0.2691
      3 C          60.4144   88.8623    8.8832 C.3     1  UNL1        0.0724
      4 C          59.7000   87.8283    8.0643 C.3     1  UNL1        0.0191
      5 C          60.2692   86.4854    8.4143 C.3     1  UNL1        0.0220
      6 C          61.3354   86.6894    9.4495 C.3     1  UNL1        0.0817
      7 C          62.1661   85.6132   10.0836 C.ar    1  UNL1        0.0114
      8 C          63.0656   84.7629    9.2364 C.ar    1  UNL1        0.0002
      9 C          63.8962   83.6868    9.8705 C.ar    1  UNL1        0.0204
     10 C          63.8273   83.4611   11.3518 C.ar    1  UNL1        0.0989
     11 N          62.9278   84.3114   12.1990 N.ar    1  UNL1       -0.2426
     12 C          62.0972   85.3875   11.5649 C.ar    1  UNL1        0.0959
@<TRIPOS>BOND
     1     1     2    1
     2     2     3    1
     3     3     4    1
     4     4     5    1
     5     5     6    1
     6     6     7    1
     7     7     8   ar
     8     8     9   ar
     9     9    10   ar
    10    10    11   ar
    11    11    12   ar
    12     6     2    1
    13    12     7   ar
@<TRIPOS>MOLECULE
*****
 12 13 0 0 0
SMALL
GASTEIGER

@<TRIPOS>ATOM
      1 C          62.1565   81.0116   13.7450 C.3     1  UNL1        0.0899
      2 N          62.8497   81.7229   12.6209 N.3     1  UNL1       -0.2691
      3 C          63.0687   81.1838   11.2384 C.3     1  UNL1        0.0724
      4 C          63.8001   82.2258   10.4450 C.3     1  UNL1        0.0191
      5 C          64.0330   83.4088   11.3373 C.3     1  UNL1        0.0220
      6 C          63.4457   83.0980   12.6821 C.3     1  UNL1        0.0817
      7 C          63.4531   84.0035   13.8780 C.ar    1  UNL1        0.0114
      8 C          64.6461   84.8691   14.1560 C.ar    1  UNL1        0.0002
      9 C          64.6534   85.7745   15.3519 C.ar    1  UNL1        0.0204
     10 C          63.4677   85.8142   16.2698 C.ar    1  UNL1        0.0989
     11 N          62.2747   84.9486   15.9918 N.ar    1  UNL1       -0.2426
     12 C          62.2674   84.0432   14.7959 C.ar    1  UNL1        0.0959
@<TRIPOS>BOND
     1     1     2    1
     2     2     3    1
     3     3     4    1
     4     4     5    1
     5     5     6    1
     6     6     7    1
     7     7     8   ar
     8     8     9   ar
     9     9    10   ar
    10    10    11   ar
    11    11    12   ar
    12     6     2    1
    13    12     7   ar
@<TRIPOS>MOLECULE
*****
 12 13 0 0 0
SMALL
GASTEIGER

@<TRIPOS>ATOM
      1 C          62.4052   81.8913   12.3413 C.3     1  UNL1        0.0899
      2 N          63.0129   83.0339   13.0996 N.3     1  UNL1       -0.2691
      3 C          63.5972   82.9647   14.4794 C.3     1  UNL1        0.0724
      4 C          64.0884   84.3344   14.8440 C.3     1  UNL1        0.0191
      5 C          63.8077   85.2499   13.6894 C.3     1  UNL1        0.0220
      6 C          63.1430   84.4462   12.6114 C.3     1  UNL1        0.0817
      7 C          62.6882   84.9639   11.2790 C.ar    1  UNL1        0.0114
      8 C          63.3941   84.5349   10.0270 C.ar    1  UNL1        0.0002
      9 C          62.9394   85.0526    8.6947 C.ar    1  UNL1        0.0204
     10 C          61.7787   85.9994    8.6144 C.ar    1  UNL1        0.0989
     11 N          61.0728   86.4285    9.8664 N.ar    1  UNL1       -0.2426
     12 C          61.5276   85.9107   11.1987 C.ar    1  UNL1        0.0959
@<TRIPOS>BOND
     1     1     2    1
     2     2     3    1
     3     3     4    1
     4     4     5    1
     5     5     6    1
     6     6     7    1
     7     7     8   ar
     8     8     9   ar
     9     9    10   ar
    10    10    11   ar
    11    11    12   ar
    12     6     2    1
    13    12     7   ar
@<TRIPOS>MOLECULE
*****
 12 13 0 0 0
SMALL
GASTEIGER

@<TRIPOS>ATOM
      1 C          63.9069   82.2992   10.5715 C.3     1  UNL1        0.0899
      2 N          63.2259   82.0621   11.8868 N.3     1  UNL1       -0.2691
      3 C          62.9266   80.7245   12.4962 C.3     1  UNL1        0.0724
      4 C          62.2403   80.9566   13.8097 C.3     1  UNL1        0.0191
      5 C          62.1155   82.4377   14.0120 C.3     1  UNL1        0.0220
      6 C          62.7247   83.1209   12.8236 C.3     1  UNL1        0.0817
      7 C          62.8164   84.6027   12.6097 C.ar    1  UNL1        0.0114
      8 C          62.1520   85.2314   11.4209 C.ar    1  UNL1        0.0002
      9 C          62.2438   86.7132   11.2070 C.ar    1  UNL1        0.0204
     10 C          62.9999   87.5663   12.1819 C.ar    1  UNL1        0.0989
     11 N          63.6643   86.9377   13.3707 N.ar    1  UNL1       -0.2426
     12 C          63.5726   85.4559   13.5846 C.ar    1  UNL1        0.0959
@<TRIPOS>BOND
     1     1     2    1
     2     2     3    1
     3     3     4    1
     4     4     5    1
     5     5     6    1
     6     6     7    1
     7     7     8   ar
     8     8     9   ar
     9     9    10   ar
    10    10    11   ar
    11    11    12   ar
    12     6     2    1
    13    12     7   ar
