@<TRIPOS>MOLECULE
*****
 29 32 0 0 0
SMALL
GASTEIGER

@<TRIPOS>ATOM
      1 C          62.0469   89.7960   11.9288 C.2     1  UNL1        0.1222
      2 C          62.6156   89.2725   10.6432 C.2     1  UNL1        0.0164
      3 C          62.9603   90.3450   12.9843 C.2     1  UNL1        0.2624
      4 O          62.7779   89.9418   14.4176 O.2     1  UNL1       -0.2688
      5 N          64.0560   91.2973   12.6067 N.am    1  UNL1       -0.2549
      6 C          64.2383   91.7005   11.1735 C.3     1  UNL1        0.0989
      7 C          65.3340   92.6528   10.7959 C.3     1  UNL1        0.0266
      8 C          66.2474   93.2018   11.8515 C.3     1  UNL1        0.0294
      9 C          66.0650   92.7986   13.2848 C.ar    1  UNL1       -0.0084
     10 C          66.9784   93.3476   14.3404 C.ar    1  UNL1       -0.0030
     11 C          66.7960   92.9444   15.7736 C.ar    1  UNL1       -0.0002
     12 C          65.7003   91.9921   16.1512 C.ar    1  UNL1        0.0013
     13 C          64.7870   91.4431   15.0956 C.ar    1  UNL1        0.0146
     14 C          64.9693   91.8463   13.6624 C.ar    1  UNL1        0.0501
     15 C          61.7021   88.7234    9.5876 C.ar    1  UNL1        0.0194
     16 C          60.5589   89.4516    8.9452 C.ar    1  UNL1        0.0762
     17 N          59.9218   88.5280    7.9497 N.ar    1  UNL1       -0.3206
     18 C          60.6713   87.2289    7.9768 C.ar    1  UNL1        0.0602
     19 C          60.4941   85.9518    7.2105 C.ar    1  UNL1        0.0172
     20 C          61.4172   84.7952    7.4565 C.ar    1  UNL1        0.0015
     21 C          62.5175   84.9160    8.4688 C.ar    1  UNL1        0.0001
     22 C          62.6948   86.1933    9.2351 C.ar    1  UNL1        0.0015
     23 C          61.7717   87.3497    8.9892 C.ar    1  UNL1        0.0173
     24 C          58.7423   88.8473    7.0799 C.3     1  UNL1        0.1477
     25 C          58.8423   89.9328    6.0493 C.2     1  UNL1        0.0732
     26 O          57.6011   90.6165    5.5575 O.co2   1  UNL1       -0.5472
     27 O          60.1833   90.3344    5.5107 O.co2   1  UNL1       -0.5472
     28 N          59.0828   89.7448   12.3885 N.1     1  UNL1       -0.1907
     29 C          60.5648   89.7704   12.1587 C.1     1  UNL1        0.1050
@<TRIPOS>UNITY_ATOM_ATTR
26 1
charge -1
@<TRIPOS>BOND
     1    28    29    3
     2    29     1    1
     3     1     2    2
     4     2    15    1
     5    15    16   ar
     6    16    17   ar
     7    17    24    1
     8    24    25    1
     9    25    26   ar
    10    25    27   ar
    11    17    18   ar
    12    18    19   ar
    13    19    20   ar
    14    20    21   ar
    15    21    22   ar
    16    22    23   ar
    17     1     3    1
    18     3     4    2
    19     3     5   am
    20     5     6    1
    21     6     7    1
    22     7     8    1
    23     8     9    1
    24     9    10   ar
    25    10    11   ar
    26    11    12   ar
    27    12    13   ar
    28    13    14   ar
    29    23    15   ar
    30    14     5    1
    31    23    18   ar
    32    14     9   ar
@<TRIPOS>MOLECULE
*****
 29 32 0 0 0
SMALL
GASTEIGER

@<TRIPOS>ATOM
      1 C          63.1768   85.6927   14.4293 C.2     1  UNL1        0.1222
      2 C          63.5003   86.4938   13.2031 C.2     1  UNL1        0.0164
      3 C          62.9260   84.2181   14.3172 C.2     1  UNL1        0.2624
      4 O          62.4664   83.4421   15.5158 O.2     1  UNL1       -0.2688
      5 N          63.1348   83.5193   13.0064 N.am    1  UNL1       -0.2549
      6 C          63.5943   84.2952   11.8077 C.3     1  UNL1        0.0989
      7 C          63.8031   83.5965   10.4969 C.3     1  UNL1        0.0266
      8 C          63.5524   82.1219   10.3848 C.3     1  UNL1        0.0294
      9 C          63.0928   81.3459   11.5835 C.ar    1  UNL1       -0.0084
     10 C          62.8420   79.8713   11.4713 C.ar    1  UNL1       -0.0030
     11 C          62.3824   79.0955   12.6700 C.ar    1  UNL1       -0.0002
     12 C          62.1736   79.7942   13.9808 C.ar    1  UNL1        0.0013
     13 C          62.4244   81.2688   14.0929 C.ar    1  UNL1        0.0146
     14 C          62.8840   82.0447   12.8943 C.ar    1  UNL1        0.0501
     15 C          63.7511   87.9685   13.3153 C.ar    1  UNL1        0.0194
     16 C          64.3986   88.6671   14.4740 C.ar    1  UNL1        0.0762
     17 N          64.4461   90.1338   14.1633 N.ar    1  UNL1       -0.3206
     18 C          63.8278   90.3417   12.8125 C.ar    1  UNL1        0.0602
     19 C          63.6005   91.5766   11.9921 C.ar    1  UNL1        0.0172
     20 C          62.9436   91.4734   10.6475 C.ar    1  UNL1        0.0015
     21 C          62.5141   90.1351   10.1234 C.ar    1  UNL1        0.0001
     22 C          62.7414   88.9001   10.9439 C.ar    1  UNL1        0.0015
     23 C          63.3983   89.0034   12.2884 C.ar    1  UNL1        0.0173
     24 C          65.0123   91.2045   15.0480 C.3     1  UNL1        0.1477
     25 C          64.2975   91.5917   16.3086 C.2     1  UNL1        0.0732
     26 O          63.0981   90.8124   16.7602 O.co2   1  UNL1       -0.5472
     27 O          64.7821   92.7581   17.1176 O.co2   1  UNL1       -0.5472
     28 N          63.0312   87.0397   17.1059 N.1     1  UNL1       -0.1907
     29 C          63.1040   86.3662   15.7677 C.1     1  UNL1        0.1050
@<TRIPOS>UNITY_ATOM_ATTR
26 1
charge -1
@<TRIPOS>BOND
     1    28    29    3
     2    29     1    1
     3     1     2    2
     4     2    15    1
     5    15    16   ar
     6    16    17   ar
     7    17    24    1
     8    24    25    1
     9    25    26   ar
    10    25    27   ar
    11    17    18   ar
    12    18    19   ar
    13    19    20   ar
    14    20    21   ar
    15    21    22   ar
    16    22    23   ar
    17     1     3    1
    18     3     4    2
    19     3     5   am
    20     5     6    1
    21     6     7    1
    22     7     8    1
    23     8     9    1
    24     9    10   ar
    25    10    11   ar
    26    11    12   ar
    27    12    13   ar
    28    13    14   ar
    29    23    15   ar
    30    14     5    1
    31    23    18   ar
    32    14     9   ar
@<TRIPOS>MOLECULE
*****
 29 32 0 0 0
SMALL
GASTEIGER

@<TRIPOS>ATOM
      1 C          62.9468   85.0246   12.2171 C.2     1  UNL1        0.1222
      2 C          63.8953   85.3488   13.3330 C.2     1  UNL1        0.0164
      3 C          63.0199   83.6910   11.5344 C.2     1  UNL1        0.2624
      4 O          63.4380   83.6066   10.0962 O.2     1  UNL1       -0.2688
      5 N          62.6749   82.4418   12.2897 N.am    1  UNL1       -0.2549
      6 C          62.2568   82.5262   13.7277 C.3     1  UNL1        0.0989
      7 C          61.9118   81.2770   14.4830 C.3     1  UNL1        0.0266
      8 C          61.9849   79.9434   13.8003 C.3     1  UNL1        0.0294
      9 C          62.4030   79.8590   12.3621 C.ar    1  UNL1       -0.0084
     10 C          62.4760   78.5254   11.6794 C.ar    1  UNL1       -0.0030
     11 C          62.8941   78.4410   10.2413 C.ar    1  UNL1       -0.0002
     12 C          63.2391   79.6902    9.4860 C.ar    1  UNL1        0.0013
     13 C          63.1660   81.0238   10.1688 C.ar    1  UNL1        0.0146
     14 C          62.7480   81.1082   11.6068 C.ar    1  UNL1        0.0501
     15 C          63.8222   86.6825   14.0158 C.ar    1  UNL1        0.0194
     16 C          64.0777   88.0153   13.3768 C.ar    1  UNL1        0.0762
     17 N          63.8942   89.0739   14.4235 N.ar    1  UNL1       -0.3206
     18 C          63.5253   88.3954   15.7094 C.ar    1  UNL1        0.0602
     19 C          63.2242   88.9324   17.0772 C.ar    1  UNL1        0.0172
     20 C          62.8786   87.9914   18.1931 C.ar    1  UNL1        0.0015
     21 C          62.8342   86.5134   17.9411 C.ar    1  UNL1        0.0001
     22 C          63.1353   85.9763   16.5733 C.ar    1  UNL1        0.0015
     23 C          63.4809   86.9173   15.4574 C.ar    1  UNL1        0.0173
     24 C          64.0518   90.5516   14.2200 C.3     1  UNL1        0.1477
     25 C          65.0596   91.3164   15.0259 C.2     1  UNL1        0.0732
     26 O          66.5101   91.2765   14.6457 O.co2   1  UNL1       -0.5472
     27 O          64.6170   92.1211   16.2118 O.co2   1  UNL1       -0.5472
     28 N          60.9037   87.0434   11.3509 N.1     1  UNL1       -0.1907
     29 C          61.9253   86.0340   11.7840 C.1     1  UNL1        0.1050
@<TRIPOS>UNITY_ATOM_ATTR
26 1
charge -1
@<TRIPOS>BOND
     1    28    29    3
     2    29     1    1
     3     1     2    2
     4     2    15    1
     5    15    16   ar
     6    16    17   ar
     7    17    24    1
     8    24    25    1
     9    25    26   ar
    10    25    27   ar
    11    17    18   ar
    12    18    19   ar
    13    19    20   ar
    14    20    21   ar
    15    21    22   ar
    16    22    23   ar
    17     1     3    1
    18     3     4    2
    19     3     5   am
    20     5     6    1
    21     6     7    1
    22     7     8    1
    23     8     9    1
    24     9    10   ar
    25    10    11   ar
    26    11    12   ar
    27    12    13   ar
    28    13    14   ar
    29    23    15   ar
    30    14     5    1
    31    23    18   ar
    32    14     9   ar
@<TRIPOS>MOLECULE
*****
 29 32 0 0 0
SMALL
GASTEIGER

@<TRIPOS>ATOM
      1 C          64.0996   90.0509   12.9171 C.2     1  UNL1        0.1222
      2 C          65.0234   90.8157   12.0163 C.2     1  UNL1        0.0164
      3 C          63.5404   88.7319   12.4726 C.2     1  UNL1        0.2624
      4 O          62.7364   88.6456   11.2091 O.2     1  UNL1       -0.2688
      5 N          63.7851   87.4992   13.2915 N.am    1  UNL1       -0.2549
      6 C          64.5890   87.5855   14.5549 C.3     1  UNL1        0.0989
      7 C          64.8338   86.3528   15.3738 C.3     1  UNL1        0.0266
      8 C          64.2746   85.0339   14.9293 C.3     1  UNL1        0.0294
      9 C          63.4707   84.9475   13.6658 C.ar    1  UNL1       -0.0084
     10 C          62.9115   83.6286   13.2213 C.ar    1  UNL1       -0.0030
     11 C          62.1076   83.5423   11.9579 C.ar    1  UNL1       -0.0002
     12 C          61.8628   84.7750   11.1390 C.ar    1  UNL1        0.0013
     13 C          62.4220   86.0940   11.5835 C.ar    1  UNL1        0.0146
     14 C          63.2259   86.1802   12.8469 C.ar    1  UNL1        0.0501
     15 C          65.5826   92.1348   12.4609 C.ar    1  UNL1        0.0194
     16 C          65.4034   93.4493   11.7611 C.ar    1  UNL1        0.0762
     17 N          66.1292   94.4977   12.5510 N.ar    1  UNL1       -0.3206
     18 C          66.7570   93.8311   13.7391 C.ar    1  UNL1        0.0602
     19 C          67.5926   94.3652   14.8644 C.ar    1  UNL1        0.0172
     20 C          68.0904   93.4390   15.9342 C.ar    1  UNL1        0.0015
     21 C          67.7526   91.9786   15.8784 C.ar    1  UNL1        0.0001
     22 C          66.9170   91.4444   14.7531 C.ar    1  UNL1        0.0015
     23 C          66.4192   92.3706   13.6834 C.ar    1  UNL1        0.0173
     24 C          66.2125   95.9566   12.2124 C.3     1  UNL1        0.1477
     25 C          66.0999   96.4028   10.7847 C.2     1  UNL1        0.0732
     26 O          64.7527   96.7005   10.1962 O.co2   1  UNL1       -0.5472
     27 O          67.3343   96.5514    9.9457 O.co2   1  UNL1       -0.5472
     28 N          63.3702   91.1591   15.6078 N.1     1  UNL1       -0.1907
     29 C          63.7349   90.6050   14.2625 C.1     1  UNL1        0.1050
@<TRIPOS>UNITY_ATOM_ATTR
26 1
charge -1
@<TRIPOS>BOND
     1    28    29    3
     2    29     1    1
     3     1     2    2
     4     2    15    1
     5    15    16   ar
     6    16    17   ar
     7    17    24    1
     8    24    25    1
     9    25    26   ar
    10    25    27   ar
    11    17    18   ar
    12    18    19   ar
    13    19    20   ar
    14    20    21   ar
    15    21    22   ar
    16    22    23   ar
    17     1     3    1
    18     3     4    2
    19     3     5   am
    20     5     6    1
    21     6     7    1
    22     7     8    1
    23     8     9    1
    24     9    10   ar
    25    10    11   ar
    26    11    12   ar
    27    12    13   ar
    28    13    14   ar
    29    23    15   ar
    30    14     5    1
    31    23    18   ar
    32    14     9   ar
@<TRIPOS>MOLECULE
*****
 29 32 0 0 0
SMALL
GASTEIGER

@<TRIPOS>ATOM
      1 C          64.6200   89.6700   14.2555 C.2     1  UNL1        0.1222
      2 C          65.6294   90.2578   13.3145 C.2     1  UNL1        0.0164
      3 C          64.2204   88.2303   14.1230 C.2     1  UNL1        0.2624
      4 O          64.5484   87.2572   15.2164 O.2     1  UNL1       -0.2688
      5 N          63.4927   87.7637   12.8971 N.am    1  UNL1       -0.2549
      6 C          63.1646   88.7368   11.8038 C.3     1  UNL1        0.0989
      7 C          62.4369   88.2702   10.5779 C.3     1  UNL1        0.0266
      8 C          62.0373   86.8305   10.4454 C.3     1  UNL1        0.0294
      9 C          62.3653   85.8573   11.5388 C.ar    1  UNL1       -0.0084
     10 C          61.9657   84.4177   11.4063 C.ar    1  UNL1       -0.0030
     11 C          62.2938   83.4446   12.4997 C.ar    1  UNL1       -0.0002
     12 C          63.0215   83.9112   13.7255 C.ar    1  UNL1        0.0013
     13 C          63.4211   85.3509   13.8580 C.ar    1  UNL1        0.0146
     14 C          63.0930   86.3239   12.7647 C.ar    1  UNL1        0.0501
     15 C          66.0290   91.6976   13.4470 C.ar    1  UNL1        0.0194
     16 C          65.5577   92.8269   12.5796 C.ar    1  UNL1        0.0762
     17 N          66.2075   94.0880   13.0667 N.ar    1  UNL1       -0.3206
     18 C          67.0805   93.7381   14.2354 C.ar    1  UNL1        0.0602
     19 C          67.9615   94.5738   15.1158 C.ar    1  UNL1        0.0172
     20 C          68.7323   93.9322   16.2313 C.ar    1  UNL1        0.0015
     21 C          68.6220   92.4549   16.4663 C.ar    1  UNL1        0.0001
     22 C          67.7409   91.6191   15.5858 C.ar    1  UNL1        0.0015
     23 C          66.9701   92.2607   14.4704 C.ar    1  UNL1        0.0173
     24 C          66.0177   95.4583   12.4872 C.3     1  UNL1        0.1477
     25 C          66.2616   95.6952   11.0262 C.2     1  UNL1        0.0732
     26 O          65.3538   96.6044   10.2521 O.co2   1  UNL1       -0.5472
     27 O          67.4132   95.0230   10.3393 O.co2   1  UNL1       -0.5472
     28 N          63.4004   91.3737   16.4026 N.1     1  UNL1       -0.1907
     29 C          64.0102   90.5219   15.3291 C.1     1  UNL1        0.1050
@<TRIPOS>UNITY_ATOM_ATTR
26 1
charge -1
@<TRIPOS>BOND
     1    28    29    3
     2    29     1    1
     3     1     2    2
     4     2    15    1
     5    15    16   ar
     6    16    17   ar
     7    17    24    1
     8    24    25    1
     9    25    26   ar
    10    25    27   ar
    11    17    18   ar
    12    18    19   ar
    13    19    20   ar
    14    20    21   ar
    15    21    22   ar
    16    22    23   ar
    17     1     3    1
    18     3     4    2
    19     3     5   am
    20     5     6    1
    21     6     7    1
    22     7     8    1
    23     8     9    1
    24     9    10   ar
    25    10    11   ar
    26    11    12   ar
    27    12    13   ar
    28    13    14   ar
    29    23    15   ar
    30    14     5    1
    31    23    18   ar
    32    14     9   ar
@<TRIPOS>MOLECULE
*****
 29 32 0 0 0
SMALL
GASTEIGER

@<TRIPOS>ATOM
      1 C          63.6372   89.4673   12.4979 C.2     1  UNL1        0.1222
      2 C          64.4507   88.8355   13.5883 C.2     1  UNL1        0.0164
      3 C          64.0792   90.7646   11.8882 C.2     1  UNL1        0.2624
      4 O          63.6864   91.1042   10.4809 O.2     1  UNL1       -0.2688
      5 N          64.9139   91.7223   12.6858 N.am    1  UNL1       -0.2549
      6 C          65.3066   91.3827   14.0930 C.3     1  UNL1        0.0989
      7 C          66.1413   92.3404   14.8906 C.3     1  UNL1        0.0266
      8 C          66.5833   93.6377   14.2809 C.3     1  UNL1        0.0294
      9 C          66.1905   93.9773   12.8736 C.ar    1  UNL1       -0.0084
     10 C          66.6324   95.2746   12.2638 C.ar    1  UNL1       -0.0030
     11 C          66.2396   95.6141   10.8566 C.ar    1  UNL1       -0.0002
     12 C          65.4049   94.6564   10.0591 C.ar    1  UNL1        0.0013
     13 C          64.9630   93.3592   10.6688 C.ar    1  UNL1        0.0146
     14 C          65.3558   93.0196   12.0760 C.ar    1  UNL1        0.0501
     15 C          64.0087   87.5381   14.1980 C.ar    1  UNL1        0.0194
     16 C          63.9725   86.2068   13.5081 C.ar    1  UNL1        0.0762
     17 N          63.4668   85.1903   14.4884 N.ar    1  UNL1       -0.3206
     18 C          63.1905   85.8934   15.7843 C.ar    1  UNL1        0.0602
     19 C          62.6772   85.3999   17.1044 C.ar    1  UNL1        0.0172
     20 C          62.4988   86.3574   18.2452 C.ar    1  UNL1        0.0015
     21 C          62.8337   87.8085   18.0658 C.ar    1  UNL1        0.0001
     22 C          63.3471   88.3021   16.7456 C.ar    1  UNL1        0.0015
     23 C          63.5254   87.3446   15.6048 C.ar    1  UNL1        0.0173
     24 C          63.2716   83.7275   14.2200 C.3     1  UNL1        0.1477
     25 C          63.4634   83.1871   12.8339 C.2     1  UNL1        0.0732
     26 O          62.4989   83.5549   11.7455 O.co2   1  UNL1       -0.5472
     27 O          64.6194   82.2791   12.5361 O.co2   1  UNL1       -0.5472
     28 N          61.1263   88.1365   11.5366 N.1     1  UNL1       -0.1907
     29 C          62.3817   88.8019   12.0173 C.1     1  UNL1        0.1050
@<TRIPOS>UNITY_ATOM_ATTR
26 1
charge -1
@<TRIPOS>BOND
     1    28    29    3
     2    29     1    1
     3     1     2    2
     4     2    15    1
     5    15    16   ar
     6    16    17   ar
     7    17    24    1
     8    24    25    1
     9    25    26   ar
    10    25    27   ar
    11    17    18   ar
    12    18    19   ar
    13    19    20   ar
    14    20    21   ar
    15    21    22   ar
    16    22    23   ar
    17     1     3    1
    18     3     4    2
    19     3     5   am
    20     5     6    1
    21     6     7    1
    22     7     8    1
    23     8     9    1
    24     9    10   ar
    25    10    11   ar
    26    11    12   ar
    27    12    13   ar
    28    13    14   ar
    29    23    15   ar
    30    14     5    1
    31    23    18   ar
    32    14     9   ar
@<TRIPOS>MOLECULE
*****
 29 32 0 0 0
SMALL
GASTEIGER

@<TRIPOS>ATOM
      1 C          62.7530   85.6817   11.9482 C.2     1  UNL1        0.1222
      2 C          63.8254   86.2236   12.8462 C.2     1  UNL1        0.0164
      3 C          62.8478   84.2775   11.4296 C.2     1  UNL1        0.2624
      4 O          63.1885   84.0311    9.9897 O.2     1  UNL1       -0.2688
      5 N          62.6019   83.1195   12.3508 N.am    1  UNL1       -0.2549
      6 C          62.2612   83.3658   13.7907 C.3     1  UNL1        0.0989
      7 C          62.0153   82.2079   14.7119 C.3     1  UNL1        0.0266
      8 C          62.1101   80.8036   14.1933 C.3     1  UNL1        0.0294
      9 C          62.4508   80.5572   12.7534 C.ar    1  UNL1       -0.0084
     10 C          62.5456   79.1530   12.2348 C.ar    1  UNL1       -0.0030
     11 C          62.8863   78.9066   10.7950 C.ar    1  UNL1       -0.0002
     12 C          63.1322   80.0646    9.8737 C.ar    1  UNL1        0.0013
     13 C          63.0374   81.4689   10.3923 C.ar    1  UNL1        0.0146
     14 C          62.6967   81.7152   11.8322 C.ar    1  UNL1        0.0501
     15 C          63.7305   87.6280   13.3648 C.ar    1  UNL1        0.0194
     16 C          63.8589   88.0489   14.7988 C.ar    1  UNL1        0.0762
     17 N          63.6984   89.5389   14.8607 N.ar    1  UNL1       -0.3206
     18 C          63.4708   90.0390   13.4649 C.ar    1  UNL1        0.0602
     19 C          63.2481   91.4172   12.9163 C.ar    1  UNL1        0.0172
     20 C          63.0452   91.6144   11.4432 C.ar    1  UNL1        0.0015
     21 C          63.0651   90.4333   10.5187 C.ar    1  UNL1        0.0001
     22 C          63.2878   89.0550   11.0672 C.ar    1  UNL1        0.0015
     23 C          63.4907   88.8579   12.5403 C.ar    1  UNL1        0.0173
     24 C          63.7554   90.3811   16.1006 C.3     1  UNL1        0.1477
     25 C          64.6316   91.5979   16.1412 C.2     1  UNL1        0.0732
     26 O          64.2863   92.7407   17.0494 O.co2   1  UNL1       -0.5472
     27 O          65.8530   91.6720   15.2738 O.co2   1  UNL1       -0.5472
     28 N          60.4187   87.4066   11.1895 N.1     1  UNL1       -0.1907
     29 C          61.5858   86.5442   11.5688 C.1     1  UNL1        0.1050
@<TRIPOS>UNITY_ATOM_ATTR
26 1
charge -1
@<TRIPOS>BOND
     1    28    29    3
     2    29     1    1
     3     1     2    2
     4     2    15    1
     5    15    16   ar
     6    16    17   ar
     7    17    24    1
     8    24    25    1
     9    25    26   ar
    10    25    27   ar
    11    17    18   ar
    12    18    19   ar
    13    19    20   ar
    14    20    21   ar
    15    21    22   ar
    16    22    23   ar
    17     1     3    1
    18     3     4    2
    19     3     5   am
    20     5     6    1
    21     6     7    1
    22     7     8    1
    23     8     9    1
    24     9    10   ar
    25    10    11   ar
    26    11    12   ar
    27    12    13   ar
    28    13    14   ar
    29    23    15   ar
    30    14     5    1
    31    23    18   ar
    32    14     9   ar
@<TRIPOS>MOLECULE
*****
 29 32 0 0 0
SMALL
GASTEIGER

@<TRIPOS>ATOM
      1 C          62.8243   85.9149   11.6341 C.2     1  UNL1        0.1222
      2 C          63.7298   86.4305   12.7131 C.2     1  UNL1        0.0164
      3 C          62.8700   84.4670   11.2450 C.2     1  UNL1        0.2624
      4 O          63.1403   84.0813    9.8208 O.2     1  UNL1       -0.2688
      5 N          62.6455   83.4048   12.2800 N.am    1  UNL1       -0.2549
      6 C          62.3752   83.7904   13.7041 C.3     1  UNL1        0.0989
      7 C          62.1507   82.7282   14.7391 C.3     1  UNL1        0.0266
      8 C          62.1964   81.2803   14.3500 C.3     1  UNL1        0.0294
      9 C          62.4667   80.8946   12.9258 C.ar    1  UNL1       -0.0084
     10 C          62.5124   79.4467   12.5367 C.ar    1  UNL1       -0.0030
     11 C          62.7827   79.0610   11.1125 C.ar    1  UNL1       -0.0002
     12 C          63.0072   80.1233   10.0775 C.ar    1  UNL1        0.0013
     13 C          62.9615   81.5712   10.4667 C.ar    1  UNL1        0.0146
     14 C          62.6912   81.9568   11.8908 C.ar    1  UNL1        0.0501
     15 C          63.6840   87.8785   13.1022 C.ar    1  UNL1        0.0194
     16 C          63.7765   89.0465   12.1656 C.ar    1  UNL1        0.0762
     17 N          63.6874   90.3025   12.9808 N.ar    1  UNL1       -0.3206
     18 C          63.5398   89.9108   14.4213 C.ar    1  UNL1        0.0602
     19 C          63.4071   90.7246   15.6742 C.ar    1  UNL1        0.0172
     20 C          63.2723   90.0403   17.0023 C.ar    1  UNL1        0.0015
     21 C          63.2703   88.5422   17.0773 C.ar    1  UNL1        0.0001
     22 C          63.4030   87.7283   15.8243 C.ar    1  UNL1        0.0015
     23 C          63.5378   88.4125   14.4963 C.ar    1  UNL1        0.0173
     24 C          63.7370   91.7041   12.4490 C.3     1  UNL1        0.1477
     25 C          64.0077   91.9449   10.9934 C.2     1  UNL1        0.0732
     26 O          65.2207   92.7217   10.5747 O.co2   1  UNL1       -0.5472
     27 O          63.0655   91.4091    9.9566 O.co2   1  UNL1       -0.5472
     28 N          60.9217   87.7796   10.2545 N.1     1  UNL1       -0.1907
     29 C          61.8730   86.8473   10.9443 C.1     1  UNL1        0.1050
@<TRIPOS>UNITY_ATOM_ATTR
26 1
charge -1
@<TRIPOS>BOND
     1    28    29    3
     2    29     1    1
     3     1     2    2
     4     2    15    1
     5    15    16   ar
     6    16    17   ar
     7    17    24    1
     8    24    25    1
     9    25    26   ar
    10    25    27   ar
    11    17    18   ar
    12    18    19   ar
    13    19    20   ar
    14    20    21   ar
    15    21    22   ar
    16    22    23   ar
    17     1     3    1
    18     3     4    2
    19     3     5   am
    20     5     6    1
    21     6     7    1
    22     7     8    1
    23     8     9    1
    24     9    10   ar
    25    10    11   ar
    26    11    12   ar
    27    12    13   ar
    28    13    14   ar
    29    23    15   ar
    30    14     5    1
    31    23    18   ar
    32    14     9   ar
@<TRIPOS>MOLECULE
*****
 29 32 0 0 0
SMALL
GASTEIGER

@<TRIPOS>ATOM
      1 C          62.9626   90.6501   11.3042 C.2     1  UNL1        0.1222
      2 C          64.0081   91.6061   10.8111 C.2     1  UNL1        0.0164
      3 C          62.0656   89.9501   10.3268 C.2     1  UNL1        0.2624
      4 O          61.2743   90.7463    9.3318 O.2     1  UNL1       -0.2688
      5 N          61.9598   88.4540   10.3445 N.am    1  UNL1       -0.2549
      6 C          62.7510   87.6578   11.3395 C.3     1  UNL1        0.0989
      7 C          62.6451   86.1616   11.3571 C.3     1  UNL1        0.0266
      8 C          61.7481   85.4616   10.3797 C.3     1  UNL1        0.0294
      9 C          60.9568   86.2578    9.3846 C.ar    1  UNL1       -0.0084
     10 C          60.0598   85.5578    8.4073 C.ar    1  UNL1       -0.0030
     11 C          59.2686   86.3540    7.4123 C.ar    1  UNL1       -0.0002
     12 C          59.3744   87.8502    7.3947 C.ar    1  UNL1        0.0013
     13 C          60.2715   88.5502    8.3720 C.ar    1  UNL1        0.0146
     14 C          61.0627   87.7540    9.3670 C.ar    1  UNL1        0.0501
     15 C          64.9052   92.3061   11.7885 C.ar    1  UNL1        0.0194
     16 C          65.4663   91.7168   13.0486 C.ar    1  UNL1        0.0762
     17 N          66.3065   92.7647   13.7163 N.ar    1  UNL1       -0.3206
     18 C          66.2646   94.0018   12.8689 C.ar    1  UNL1        0.0602
     19 C          66.9031   95.3496   13.0282 C.ar    1  UNL1        0.0172
     20 C          66.6757   96.4141   11.9961 C.ar    1  UNL1        0.0015
     21 C          65.8096   96.1306   10.8046 C.ar    1  UNL1        0.0001
     22 C          65.1710   94.7826   10.6453 C.ar    1  UNL1        0.0015
     23 C          65.3985   93.7183   11.6774 C.ar    1  UNL1        0.0173
     24 C          67.0568   92.6040   15.0051 C.3     1  UNL1        0.1477
     25 C          68.4845   93.0537   15.1030 C.2     1  UNL1        0.0732
     26 O          69.5116   92.4995   14.1607 O.co2   1  UNL1       -0.5472
     27 O          68.8850   94.0574   16.1431 O.co2   1  UNL1       -0.5472
     28 N          62.6658   90.1382   14.2453 N.1     1  UNL1       -0.1907
     29 C          62.8142   90.3942   12.7748 C.1     1  UNL1        0.1050
@<TRIPOS>UNITY_ATOM_ATTR
26 1
charge -1
@<TRIPOS>BOND
     1    28    29    3
     2    29     1    1
     3     1     2    2
     4     2    15    1
     5    15    16   ar
     6    16    17   ar
     7    17    24    1
     8    24    25    1
     9    25    26   ar
    10    25    27   ar
    11    17    18   ar
    12    18    19   ar
    13    19    20   ar
    14    20    21   ar
    15    21    22   ar
    16    22    23   ar
    17     1     3    1
    18     3     4    2
    19     3     5   am
    20     5     6    1
    21     6     7    1
    22     7     8    1
    23     8     9    1
    24     9    10   ar
    25    10    11   ar
    26    11    12   ar
    27    12    13   ar
    28    13    14   ar
    29    23    15   ar
    30    14     5    1
    31    23    18   ar
    32    14     9   ar
