@<TRIPOS>MOLECULE
*****
 26 28 0 0 0
SMALL
GASTEIGER

@<TRIPOS>ATOM
      1 C          62.9840   83.8882   13.5124 C.ar    1  UNL1        0.2002
      2 N          62.2747   85.0960   12.9756 N.ar    1  UNL1       -0.2149
      3 C          62.3163   85.3991   11.5071 C.ar    1  UNL1        0.0917
      4 C          61.6070   86.6069   10.9702 C.ar    1  UNL1        0.0562
      5 C          61.6486   86.9100    9.5017 C.ar    1  UNL1        0.1402
      6 C          62.3995   86.0053    8.5702 C.ar    1  UNL1        0.0372
      7 C          63.1088   84.7976    9.1070 C.ar    1  UNL1        0.0094
      8 C          63.0672   84.4945   10.5755 C.ar    1  UNL1        0.0741
      9 C          63.7765   83.2867   11.1124 C.ar    1  UNL1        0.2643
     10 O          64.5273   82.3821   10.1809 O.2     1  UNL1       -0.2668
     11 N          63.7349   82.9836   12.5809 N.ar    1  UNL1       -0.2669
     12 C          64.4441   81.7758   13.1178 C.3     1  UNL1        0.1363
     13 N          62.9424   83.5851   14.9809 N.pl3   1  UNL1       -0.3039
     14 H          63.1640   82.6817   15.3036 H       1  UNL1        0.1496
     15 C          62.5632   84.6583   15.9579 C.3     1  UNL1        0.0942
     16 C          63.6127   85.5810   16.5030 C.3     1  UNL1        0.0476
     17 C          63.7316   89.8821   15.1852 C.ar    1  UNL1        0.1387
     18 C          64.3269   88.8145   14.3157 C.ar    1  UNL1        0.0366
     19 C          64.2873   87.3809   14.7550 C.ar    1  UNL1       -0.0011
     20 C          63.6523   87.0148   16.0638 C.ar    1  UNL1       -0.0203
     21 C          63.0570   88.0823   16.9332 C.ar    1  UNL1       -0.0011
     22 C          63.0967   89.5159   16.4939 C.ar    1  UNL1        0.0366
     23 C          64.4985   91.6956   13.4902 C.3     1  UNL1        0.2525
     24 O          63.7713   91.3158   14.7459 O.3     1  UNL1       -0.4714
     25 O          60.9393   88.1177    8.9648 O.3     1  UNL1       -0.4714
     26 C          59.7329   87.9514    8.0892 C.3     1  UNL1        0.2525
@<TRIPOS>BOND
     1    23    24    1
     2    24    17    1
     3    17    18   ar
     4    18    19   ar
     5    19    20   ar
     6    20    16    1
     7    16    15    1
     8    15    13    1
     9    13     1    1
    10     1     2   ar
    11     2     3   ar
    12     3     4   ar
    13     4     5   ar
    14     5    25    1
    15    25    26    1
    16     5     6   ar
    17     6     7   ar
    18     7     8   ar
    19     8     9   ar
    20     9    10    2
    21     9    11   ar
    22    11    12    1
    23    20    21   ar
    24    21    22   ar
    25    22    17   ar
    26    11     1   ar
    27     8     3   ar
    28    13    14    1
@<TRIPOS>MOLECULE
*****
 26 28 0 0 0
SMALL
GASTEIGER

@<TRIPOS>ATOM
      1 C          60.7356   87.3498   10.4745 C.ar    1  UNL1        0.2002
      2 N          61.3751   86.6931   11.6618 N.ar    1  UNL1       -0.2149
      3 C          62.3138   85.5396   11.4657 C.ar    1  UNL1        0.0917
      4 C          62.9533   84.8828   12.6529 C.ar    1  UNL1        0.0562
      5 C          63.8920   83.7294   12.4568 C.ar    1  UNL1        0.1402
      6 C          64.1911   83.2327   11.0734 C.ar    1  UNL1        0.0372
      7 C          63.5516   83.8895    9.8861 C.ar    1  UNL1        0.0094
      8 C          62.6130   85.0429   10.0823 C.ar    1  UNL1        0.0741
      9 C          61.9734   85.6997    8.8949 C.ar    1  UNL1        0.2643
     10 O          62.2725   85.2030    7.5115 O.2     1  UNL1       -0.2668
     11 N          61.0347   86.8531    9.0911 N.ar    1  UNL1       -0.2669
     12 C          60.3952   87.5099    7.9037 C.3     1  UNL1        0.1363
     13 N          59.7969   88.5033   10.6706 N.pl3   1  UNL1       -0.3039
     14 H          58.8333   88.3392   10.7885 H       1  UNL1        0.1496
     15 C          60.3263   89.9066   10.6870 C.3     1  UNL1        0.0942
     16 C          61.6839   90.2027   10.1222 C.3     1  UNL1        0.0476
     17 C          64.9894   91.6121   12.8309 C.ar    1  UNL1        0.1387
     18 C          64.8888   92.1429   11.4316 C.ar    1  UNL1        0.0366
     19 C          63.7870   91.6731   10.5288 C.ar    1  UNL1       -0.0011
     20 C          62.7858   90.6725   11.0252 C.ar    1  UNL1       -0.0203
     21 C          62.8864   90.1417   12.4245 C.ar    1  UNL1       -0.0011
     22 C          63.9882   90.6115   13.3274 C.ar    1  UNL1        0.0366
     23 C          66.5439   93.5111   13.6838 C.3     1  UNL1        0.2525
     24 O          66.0913   92.0819   13.7339 O.3     1  UNL1       -0.4714
     25 O          64.5316   83.0726   13.6441 O.3     1  UNL1       -0.4714
     26 C          64.1976   83.5396   15.0299 C.3     1  UNL1        0.2525
@<TRIPOS>BOND
     1    23    24    1
     2    24    17    1
     3    17    18   ar
     4    18    19   ar
     5    19    20   ar
     6    20    16    1
     7    16    15    1
     8    15    13    1
     9    13     1    1
    10     1     2   ar
    11     2     3   ar
    12     3     4   ar
    13     4     5   ar
    14     5    25    1
    15    25    26    1
    16     5     6   ar
    17     6     7   ar
    18     7     8   ar
    19     8     9   ar
    20     9    10    2
    21     9    11   ar
    22    11    12    1
    23    20    21   ar
    24    21    22   ar
    25    22    17   ar
    26    11     1   ar
    27     8     3   ar
    28    13    14    1
@<TRIPOS>MOLECULE
*****
 26 28 0 0 0
SMALL
GASTEIGER

@<TRIPOS>ATOM
      1 C          61.2880   87.3137   11.0497 C.ar    1  UNL1        0.2002
      2 N          61.9210   86.3306   11.9892 N.ar    1  UNL1       -0.2149
      3 C          62.6183   85.1178   11.4478 C.ar    1  UNL1        0.0917
      4 C          63.2513   84.1347   12.3873 C.ar    1  UNL1        0.0562
      5 C          63.9487   82.9221   11.8459 C.ar    1  UNL1        0.1402
      6 C          64.0130   82.6926   10.3650 C.ar    1  UNL1        0.0372
      7 C          63.3800   83.6757    9.4254 C.ar    1  UNL1        0.0094
      8 C          62.6827   84.8883    9.9669 C.ar    1  UNL1        0.0741
      9 C          62.0496   85.8715    9.0273 C.ar    1  UNL1        0.2643
     10 O          62.1139   85.6420    7.5464 O.2     1  UNL1       -0.2668
     11 N          61.3523   87.0842    9.5688 N.ar    1  UNL1       -0.2669
     12 C          60.7192   88.0674    8.6292 C.3     1  UNL1        0.1363
     13 N          60.5906   88.5264   11.5911 N.pl3   1  UNL1       -0.3039
     14 H          59.6358   88.4810   11.8270 H       1  UNL1        0.1496
     15 C          61.3479   89.8083   11.7731 C.3     1  UNL1        0.0942
     16 C          62.6364   89.8156   12.5409 C.3     1  UNL1        0.0476
     17 C          65.7856   92.8960   11.6220 C.ar    1  UNL1        0.1387
     18 C          64.8349   92.4524   10.5499 C.ar    1  UNL1        0.0366
     19 C          63.7852   91.4257   10.8562 C.ar    1  UNL1       -0.0011
     20 C          63.6862   90.8425   12.2346 C.ar    1  UNL1       -0.0203
     21 C          64.6368   91.2860   13.3067 C.ar    1  UNL1       -0.0011
     22 C          65.6865   92.3128   13.0004 C.ar    1  UNL1        0.0366
     23 C          67.1684   94.2529    9.8909 C.3     1  UNL1        0.2525
     24 O          66.8353   93.9228   11.3157 O.3     1  UNL1       -0.4714
     25 O          64.5817   81.9389   12.7854 O.3     1  UNL1       -0.4714
     26 C          63.7205   81.0584   13.6417 C.3     1  UNL1        0.2525
@<TRIPOS>BOND
     1    23    24    1
     2    24    17    1
     3    17    18   ar
     4    18    19   ar
     5    19    20   ar
     6    20    16    1
     7    16    15    1
     8    15    13    1
     9    13     1    1
    10     1     2   ar
    11     2     3   ar
    12     3     4   ar
    13     4     5   ar
    14     5    25    1
    15    25    26    1
    16     5     6   ar
    17     6     7   ar
    18     7     8   ar
    19     8     9   ar
    20     9    10    2
    21     9    11   ar
    22    11    12    1
    23    20    21   ar
    24    21    22   ar
    25    22    17   ar
    26    11     1   ar
    27     8     3   ar
    28    13    14    1
@<TRIPOS>MOLECULE
*****
 26 28 0 0 0
SMALL
GASTEIGER

@<TRIPOS>ATOM
      1 C          63.5759   87.7300   13.3210 C.ar    1  UNL1        0.2002
      2 N          62.9068   88.6201   12.3160 N.ar    1  UNL1       -0.2149
      3 C          62.1487   88.0195   11.1693 C.ar    1  UNL1        0.0917
      4 C          61.4797   88.9095   10.1643 C.ar    1  UNL1        0.0562
      5 C          60.7216   88.3089    9.0178 C.ar    1  UNL1        0.1402
      6 C          60.6326   86.8183    8.8763 C.ar    1  UNL1        0.0372
      7 C          61.3016   85.9282    9.8813 C.ar    1  UNL1        0.0094
      8 C          62.0597   86.5288   11.0279 C.ar    1  UNL1        0.0741
      9 C          62.7288   85.6388   12.0330 C.ar    1  UNL1        0.2643
     10 O          62.6398   84.1481   11.8915 O.2     1  UNL1       -0.2668
     11 N          63.4868   86.2394   13.1795 N.ar    1  UNL1       -0.2669
     12 C          64.1559   85.3493   14.1846 C.3     1  UNL1        0.1363
     13 N          64.3340   88.3306   14.4676 N.pl3   1  UNL1       -0.3039
     14 H          65.2533   88.0347   14.6587 H       1  UNL1        0.1496
     15 C          63.6914   89.3820   15.3230 C.3     1  UNL1        0.0942
     16 C          64.3316   90.7315   15.4603 C.3     1  UNL1        0.0476
     17 C          66.7299   92.4409   12.0580 C.ar    1  UNL1        0.1387
     18 C          67.4065   92.0872   13.3491 C.ar    1  UNL1        0.0366
     19 C          66.6070   91.5174   14.4832 C.ar    1  UNL1       -0.0011
     20 C          65.1310   91.3013   14.3261 C.ar    1  UNL1       -0.0203
     21 C          64.4545   91.6549   13.0350 C.ar    1  UNL1       -0.0011
     22 C          65.2539   92.2247   11.9009 C.ar    1  UNL1        0.0366
     23 C          68.1342   92.0972    9.8992 C.3     1  UNL1        0.2525
     24 O          67.5294   93.0107   10.9238 O.3     1  UNL1       -0.4714
     25 O          60.0525   89.1990    8.0127 O.3     1  UNL1       -0.4714
     26 C          59.0347   88.6314    7.0683 C.3     1  UNL1        0.2525
@<TRIPOS>BOND
     1    23    24    1
     2    24    17    1
     3    17    18   ar
     4    18    19   ar
     5    19    20   ar
     6    20    16    1
     7    16    15    1
     8    15    13    1
     9    13     1    1
    10     1     2   ar
    11     2     3   ar
    12     3     4   ar
    13     4     5   ar
    14     5    25    1
    15    25    26    1
    16     5     6   ar
    17     6     7   ar
    18     7     8   ar
    19     8     9   ar
    20     9    10    2
    21     9    11   ar
    22    11    12    1
    23    20    21   ar
    24    21    22   ar
    25    22    17   ar
    26    11     1   ar
    27     8     3   ar
    28    13    14    1
@<TRIPOS>MOLECULE
*****
 26 28 0 0 0
SMALL
GASTEIGER

@<TRIPOS>ATOM
      1 C          62.1070   86.2293   11.0249 C.ar    1  UNL1        0.2002
      2 N          62.8655   87.0121   12.0554 N.ar    1  UNL1       -0.2149
      3 C          62.9349   88.5075   11.9602 C.ar    1  UNL1        0.0917
      4 C          63.6934   89.2902   12.9906 C.ar    1  UNL1        0.0562
      5 C          63.7627   90.7856   12.8953 C.ar    1  UNL1        0.1402
      6 C          63.0735   91.4982   11.7696 C.ar    1  UNL1        0.0372
      7 C          62.3150   90.7154   10.7392 C.ar    1  UNL1        0.0094
      8 C          62.2456   89.2201   10.8345 C.ar    1  UNL1        0.0741
      9 C          61.4871   88.4372    9.8040 C.ar    1  UNL1        0.2643
     10 O          60.7978   89.1498    8.6783 O.2     1  UNL1       -0.2668
     11 N          61.4177   86.9419    9.8992 N.ar    1  UNL1       -0.2669
     12 C          60.6592   86.1590    8.8688 C.3     1  UNL1        0.1363
     13 N          62.0376   84.7339   11.1202 N.pl3   1  UNL1       -0.3039
     14 H          61.1702   84.2891   11.2578 H       1  UNL1        0.1496
     15 C          63.2899   83.9162   11.0058 C.3     1  UNL1        0.0942
     16 C          63.9464   83.3731   12.2403 C.3     1  UNL1        0.0476
     17 C          63.3385   85.4238   16.1995 C.ar    1  UNL1        0.1387
     18 C          64.5557   85.7268   15.3770 C.ar    1  UNL1        0.0366
     19 C          64.7583   85.0433   14.0573 C.ar    1  UNL1       -0.0011
     20 C          63.7437   84.0567   13.5601 C.ar    1  UNL1       -0.0203
     21 C          62.5265   83.7536   14.3825 C.ar    1  UNL1       -0.0011
     22 C          62.3239   84.4372   15.7022 C.ar    1  UNL1        0.0366
     23 C          62.7985   87.5682   17.5632 C.3     1  UNL1        0.2525
     24 O          63.1358   86.1073   17.5193 O.3     1  UNL1       -0.4714
     25 O          64.5213   91.5684   13.9258 O.3     1  UNL1       -0.4714
     26 C          65.9119   91.1554   14.3077 C.3     1  UNL1        0.2525
@<TRIPOS>BOND
     1    23    24    1
     2    24    17    1
     3    17    18   ar
     4    18    19   ar
     5    19    20   ar
     6    20    16    1
     7    16    15    1
     8    15    13    1
     9    13     1    1
    10     1     2   ar
    11     2     3   ar
    12     3     4   ar
    13     4     5   ar
    14     5    25    1
    15    25    26    1
    16     5     6   ar
    17     6     7   ar
    18     7     8   ar
    19     8     9   ar
    20     9    10    2
    21     9    11   ar
    22    11    12    1
    23    20    21   ar
    24    21    22   ar
    25    22    17   ar
    26    11     1   ar
    27     8     3   ar
    28    13    14    1
@<TRIPOS>MOLECULE
*****
 26 28 0 0 0
SMALL
GASTEIGER

@<TRIPOS>ATOM
      1 C          61.7871   90.5064   10.5781 C.ar    1  UNL1        0.2002
      2 N          62.9782   91.2459   10.0450 N.ar    1  UNL1       -0.2149
      3 C          64.0987   91.6269   10.9667 C.ar    1  UNL1        0.0917
      4 C          65.2898   92.3664   10.4336 C.ar    1  UNL1        0.0562
      5 C          66.4102   92.7473   11.3553 C.ar    1  UNL1        0.1402
      6 C          66.3394   92.3888   12.8101 C.ar    1  UNL1        0.0372
      7 C          65.1483   91.6494   13.3432 C.ar    1  UNL1        0.0094
      8 C          64.0279   91.2684   12.4215 C.ar    1  UNL1        0.0741
      9 C          62.8367   90.5288   12.9546 C.ar    1  UNL1        0.2643
     10 O          62.7659   90.1703   14.4094 O.2     1  UNL1       -0.2668
     11 N          61.7163   90.1479   12.0329 N.ar    1  UNL1       -0.2669
     12 C          60.5251   89.4083   12.5660 C.3     1  UNL1        0.1363
     13 N          60.6666   90.1254    9.6564 N.pl3   1  UNL1       -0.3039
     14 H          60.0855   90.8219    9.2738 H       1  UNL1        0.1496
     15 C          60.4316   88.6832    9.3177 C.3     1  UNL1        0.0942
     16 C          61.5543   87.8466    8.7796 C.3     1  UNL1        0.0476
     17 C          62.9646   84.2355   11.0646 C.ar    1  UNL1        0.1387
     18 C          62.1567   85.2927   11.7571 C.ar    1  UNL1        0.0366
     19 C          61.6866   86.4964   10.9954 C.ar    1  UNL1       -0.0011
     20 C          62.0244   86.6428    9.5413 C.ar    1  UNL1       -0.0203
     21 C          62.8324   85.5856    8.8488 C.ar    1  UNL1       -0.0011
     22 C          63.3025   84.3820    9.6105 C.ar    1  UNL1        0.0366
     23 C          62.8378   82.7107   13.1644 C.3     1  UNL1        0.2525
     24 O          63.4348   83.0318   11.8263 O.3     1  UNL1       -0.4714
     25 O          67.6015   93.4869   10.8222 O.3     1  UNL1       -0.4714
     26 C          67.5652   94.0708    9.4410 C.3     1  UNL1        0.2525
@<TRIPOS>BOND
     1    23    24    1
     2    24    17    1
     3    17    18   ar
     4    18    19   ar
     5    19    20   ar
     6    20    16    1
     7    16    15    1
     8    15    13    1
     9    13     1    1
    10     1     2   ar
    11     2     3   ar
    12     3     4   ar
    13     4     5   ar
    14     5    25    1
    15    25    26    1
    16     5     6   ar
    17     6     7   ar
    18     7     8   ar
    19     8     9   ar
    20     9    10    2
    21     9    11   ar
    22    11    12    1
    23    20    21   ar
    24    21    22   ar
    25    22    17   ar
    26    11     1   ar
    27     8     3   ar
    28    13    14    1
@<TRIPOS>MOLECULE
*****
 26 28 0 0 0
SMALL
GASTEIGER

@<TRIPOS>ATOM
      1 C          63.8690   87.6733   13.6500 C.ar    1  UNL1        0.2002
      2 N          63.1256   86.7905   12.6919 N.ar    1  UNL1       -0.2149
      3 C          62.4250   87.3900   11.5088 C.ar    1  UNL1        0.0917
      4 C          61.6816   86.5072   10.5508 C.ar    1  UNL1        0.0562
      5 C          60.9810   87.1068    9.3677 C.ar    1  UNL1        0.1402
      6 C          61.0239   88.5892    9.1427 C.ar    1  UNL1        0.0372
      7 C          61.7673   89.4720   10.1007 C.ar    1  UNL1        0.0094
      8 C          62.4679   88.8724   11.2838 C.ar    1  UNL1        0.0741
      9 C          63.2114   89.7553   12.2419 C.ar    1  UNL1        0.2643
     10 O          63.2542   91.2377   12.0169 O.2     1  UNL1       -0.2668
     11 N          63.9119   89.1557   13.4250 N.ar    1  UNL1       -0.2669
     12 C          64.6554   90.0385   14.3831 C.3     1  UNL1        0.1363
     13 N          64.5697   87.0737   14.8331 N.pl3   1  UNL1       -0.3039
     14 H          64.8873   87.6533   15.5628 H       1  UNL1        0.1496
     15 C          64.7863   85.5912   14.9044 C.3     1  UNL1        0.0942
     16 C          63.6255   84.6748   15.1547 C.3     1  UNL1        0.0476
     17 C          62.9864   81.0824   12.5211 C.ar    1  UNL1        0.1387
     18 C          64.1331   82.0122   12.2559 C.ar    1  UNL1        0.0366
     19 C          64.3461   83.2097   13.1337 C.ar    1  UNL1       -0.0011
     20 C          63.4124   83.4773   14.2768 C.ar    1  UNL1       -0.0203
     21 C          62.2657   82.5474   14.5421 C.ar    1  UNL1       -0.0011
     22 C          62.0527   81.3500   13.6642 C.ar    1  UNL1        0.0366
     23 C          62.8707   80.0208   10.1526 C.3     1  UNL1        0.2525
     24 O          62.7733   79.8848   11.6432 O.3     1  UNL1       -0.4714
     25 O          60.2376   86.2239    8.4096 O.3     1  UNL1       -0.4714
     26 C          59.0063   86.7338    7.7211 C.3     1  UNL1        0.2525
@<TRIPOS>BOND
     1    23    24    1
     2    24    17    1
     3    17    18   ar
     4    18    19   ar
     5    19    20   ar
     6    20    16    1
     7    16    15    1
     8    15    13    1
     9    13     1    1
    10     1     2   ar
    11     2     3   ar
    12     3     4   ar
    13     4     5   ar
    14     5    25    1
    15    25    26    1
    16     5     6   ar
    17     6     7   ar
    18     7     8   ar
    19     8     9   ar
    20     9    10    2
    21     9    11   ar
    22    11    12    1
    23    20    21   ar
    24    21    22   ar
    25    22    17   ar
    26    11     1   ar
    27     8     3   ar
    28    13    14    1
@<TRIPOS>MOLECULE
*****
 26 28 0 0 0
SMALL
GASTEIGER

@<TRIPOS>ATOM
      1 C          63.5361   90.3339   14.9651 C.ar    1  UNL1        0.2002
      2 N          62.5452   89.7506   14.0019 N.ar    1  UNL1       -0.2149
      3 C          62.6038   90.1208   12.5494 C.ar    1  UNL1        0.0917
      4 C          61.6129   89.5375   11.5862 C.ar    1  UNL1        0.0562
      5 C          61.6716   89.9076   10.1338 C.ar    1  UNL1        0.1402
      6 C          62.7213   90.8610    9.6446 C.ar    1  UNL1        0.0372
      7 C          63.7122   91.4443   10.6078 C.ar    1  UNL1        0.0094
      8 C          63.6535   91.0742   12.0602 C.ar    1  UNL1        0.0741
      9 C          64.6444   91.6575   13.0235 C.ar    1  UNL1        0.2643
     10 O          65.6940   92.6109   12.5343 O.2     1  UNL1       -0.2668
     11 N          64.5857   91.2873   14.4759 N.ar    1  UNL1       -0.2669
     12 C          65.5767   91.8706   15.4392 C.3     1  UNL1        0.1363
     13 N          63.4774   89.9638   16.4176 N.pl3   1  UNL1       -0.3039
     14 H          64.0445   90.4361   17.0693 H       1  UNL1        0.1496
     15 C          62.5548   88.8741   16.8772 C.3     1  UNL1        0.0942
     16 C          63.1162   87.5664   17.3512 C.3     1  UNL1        0.0476
     17 C          63.6390   84.1609   14.4566 C.ar    1  UNL1        0.1387
     18 C          64.5026   85.3820   14.3419 C.ar    1  UNL1        0.0366
     19 C          64.3283   86.5171   15.3067 C.ar    1  UNL1       -0.0011
     20 C          63.2905   86.4312   16.3863 C.ar    1  UNL1       -0.0203
     21 C          62.4269   85.2101   16.5011 C.ar    1  UNL1       -0.0011
     22 C          62.6012   84.0749   15.5362 C.ar    1  UNL1        0.0366
     23 C          64.2878   83.2951   12.0945 C.3     1  UNL1        0.2525
     24 O          63.8133   83.0257   13.4917 O.3     1  UNL1       -0.4714
     25 O          60.6807   89.3243    9.1705 O.3     1  UNL1       -0.4714
     26 C          60.0874   87.9717    9.4320 C.3     1  UNL1        0.2525
@<TRIPOS>BOND
     1    23    24    1
     2    24    17    1
     3    17    18   ar
     4    18    19   ar
     5    19    20   ar
     6    20    16    1
     7    16    15    1
     8    15    13    1
     9    13     1    1
    10     1     2   ar
    11     2     3   ar
    12     3     4   ar
    13     4     5   ar
    14     5    25    1
    15    25    26    1
    16     5     6   ar
    17     6     7   ar
    18     7     8   ar
    19     8     9   ar
    20     9    10    2
    21     9    11   ar
    22    11    12    1
    23    20    21   ar
    24    21    22   ar
    25    22    17   ar
    26    11     1   ar
    27     8     3   ar
    28    13    14    1
@<TRIPOS>MOLECULE
*****
 26 28 0 0 0
SMALL
GASTEIGER

@<TRIPOS>ATOM
      1 C          61.8550   88.9292   11.7001 C.ar    1  UNL1        0.2002
      2 N          62.7495   89.0672   12.8962 N.ar    1  UNL1       -0.2149
      3 C          63.7880   90.1489   12.9354 C.ar    1  UNL1        0.0917
      4 C          64.6825   90.2868   14.1316 C.ar    1  UNL1        0.0562
      5 C          65.7210   91.3684   14.1707 C.ar    1  UNL1        0.1402
      6 C          65.8650   92.3121   13.0137 C.ar    1  UNL1        0.0372
      7 C          64.9705   92.1742   11.8175 C.ar    1  UNL1        0.0094
      8 C          63.9321   91.0926   11.7784 C.ar    1  UNL1        0.0741
      9 C          63.0375   90.9546   10.5822 C.ar    1  UNL1        0.2643
     10 O          63.1815   91.8983    9.4252 O.2     1  UNL1       -0.2668
     11 N          61.9991   89.8729   10.5430 N.ar    1  UNL1       -0.2669
     12 C          61.1045   89.7349    9.3468 C.3     1  UNL1        0.1363
     13 N          60.8165   87.8476   11.6609 N.pl3   1  UNL1       -0.3039
     14 H          60.0397   87.8889   12.2643 H       1  UNL1        0.1496
     15 C          60.9615   86.7030   10.7023 C.3     1  UNL1        0.0942
     16 C          62.3136   86.1064   10.4457 C.3     1  UNL1        0.0476
     17 C          63.5673   82.3624   12.6045 C.ar    1  UNL1        0.1387
     18 C          62.9176   83.4827   13.3613 C.ar    1  UNL1        0.0366
     19 C          62.4997   84.7306   12.6417 C.ar    1  UNL1       -0.0011
     20 C          62.7315   84.8583   11.1653 C.ar    1  UNL1       -0.0203
     21 C          63.3811   83.7380   10.4084 C.ar    1  UNL1       -0.0011
     22 C          63.7990   82.4901   11.1280 C.ar    1  UNL1        0.0366
     23 C          62.9575   80.0939   13.7146 C.3     1  UNL1        0.2525
     24 O          63.9852   81.1143   13.3241 O.3     1  UNL1       -0.4714
     25 O          66.6155   91.5064   15.3669 O.3     1  UNL1       -0.4714
     26 C          67.9739   92.1255   15.2202 C.3     1  UNL1        0.2525
@<TRIPOS>BOND
     1    23    24    1
     2    24    17    1
     3    17    18   ar
     4    18    19   ar
     5    19    20   ar
     6    20    16    1
     7    16    15    1
     8    15    13    1
     9    13     1    1
    10     1     2   ar
    11     2     3   ar
    12     3     4   ar
    13     4     5   ar
    14     5    25    1
    15    25    26    1
    16     5     6   ar
    17     6     7   ar
    18     7     8   ar
    19     8     9   ar
    20     9    10    2
    21     9    11   ar
    22    11    12    1
    23    20    21   ar
    24    21    22   ar
    25    22    17   ar
    26    11     1   ar
    27     8     3   ar
    28    13    14    1
