@<TRIPOS>MOLECULE
*****
 25 27 0 0 0
SMALL
GASTEIGER

@<TRIPOS>ATOM
      1 C          63.8715   89.5012   15.1084 C.2     1  UNL1        0.2309
      2 O          62.4955   89.3441   15.6846 O.2     1  UNL1       -0.2744
      3 N          64.6851   88.2877   14.7681 N.am    1  UNL1       -0.2787
      4 H          65.5882   88.3908   14.3900 H       1  UNL1        0.1553
      5 C          64.1227   86.9173   15.0040 C.ar    1  UNL1        0.0807
      6 C          64.0089   85.8235   13.9839 C.ar    1  UNL1        0.0219
      7 C          63.3912   84.6303   14.6508 C.ar    1  UNL1        0.0084
      8 C          63.1232   84.9867   16.0830 C.ar    1  UNL1        0.0367
      9 S          63.5753   86.4002   16.3012 S.2     1  UNL1       -0.0717
     10 C          63.0937   83.3121   13.9997 C.ar    1  UNL1        0.0045
     11 C          63.9943   82.7883   12.9205 C.ar    1  UNL1        0.0208
     12 C          63.6969   81.4702   12.2695 C.ar    1  UNL1        0.0998
     13 N          62.4987   80.6756   12.6977 N.ar    1  UNL1       -0.2324
     14 C          61.5982   81.1993   13.7769 C.ar    1  UNL1        0.1384
     15 CL         60.4001   80.4048   14.2050 Cl      1  UNL1       -0.0613
     16 C          61.8957   82.5175   14.4279 C.ar    1  UNL1        0.0308
     17 C          64.4339   90.8715   14.8726 C.3     1  UNL1        0.1118
     18 C          65.8607   92.8921   11.7691 C.ar    1  UNL1        0.1384
     19 C          64.9699   92.3914   10.6711 C.ar    1  UNL1        0.0369
     20 C          63.9004   91.3840   10.9735 C.ar    1  UNL1        0.0028
     21 C          63.7218   90.8774   12.3740 C.ar    1  UNL1       -0.0036
     22 C          64.6126   91.3782   13.4720 C.ar    1  UNL1       -0.0101
     23 C          65.6820   92.3855   13.1696 C.ar    1  UNL1        0.0331
     24 C          66.5629   95.2294   10.8780 C.3     1  UNL1        0.2525
     25 O          66.9301   93.8995   11.4666 O.3     1  UNL1       -0.4714
@<TRIPOS>BOND
     1    24    25    1
     2    25    18    1
     3    18    19   ar
     4    19    20   ar
     5    20    21   ar
     6    21    22   ar
     7    22    17    1
     8    17     1    1
     9     1     2    2
    10     1     3   am
    11     3     5    1
    12     5     6   ar
    13     6     7   ar
    14     7    10    1
    15    10    11   ar
    16    11    12   ar
    17    12    13   ar
    18    13    14   ar
    19    14    15    1
    20    14    16   ar
    21     7     8   ar
    22     8     9   ar
    23    22    23   ar
    24    23    18   ar
    25     9     5   ar
    26    16    10   ar
    27     3     4    1
@<TRIPOS>MOLECULE
*****
 25 27 0 0 0
SMALL
GASTEIGER

@<TRIPOS>ATOM
      1 C          63.6276   89.1935   15.5947 C.2     1  UNL1        0.2309
      2 O          62.4548   88.6619   16.3640 O.2     1  UNL1       -0.2744
      3 N          64.4922   88.2572   14.8034 N.am    1  UNL1       -0.2787
      4 H          65.2620   88.6061   14.2985 H       1  UNL1        0.1553
      5 C          64.1839   86.7894   14.7815 C.ar    1  UNL1        0.0807
      6 C          64.0363   85.9377   13.5557 C.ar    1  UNL1        0.0219
      7 C          63.7302   84.5376   13.9981 C.ar    1  UNL1        0.0084
      8 C          63.6887   84.5239   15.4976 C.ar    1  UNL1        0.0367
      9 S          63.9691   85.9156   15.9817 S.2     1  UNL1       -0.0717
     10 C          63.5052   83.3581   13.0991 C.ar    1  UNL1        0.0045
     11 C          63.8882   83.4350   11.6509 C.ar    1  UNL1        0.0208
     12 C          63.6633   82.2557   10.7518 C.ar    1  UNL1        0.0998
     13 N          63.0551   80.9992   11.3010 N.ar    1  UNL1       -0.2324
     14 C          62.6720   80.9222   12.7492 C.ar    1  UNL1        0.1384
     15 CL         62.0639   79.6658   13.2984 Cl      1  UNL1       -0.0613
     16 C          62.8970   82.1017   13.6483 C.ar    1  UNL1        0.0308
     17 C          63.9360   90.6613   15.6166 C.3     1  UNL1        0.1118
     18 C          67.0689   92.2880   13.8031 C.ar    1  UNL1        0.1384
     19 C          66.5326   92.4630   12.4133 C.ar    1  UNL1        0.0369
     20 C          65.1308   92.0374   12.0911 C.ar    1  UNL1        0.0028
     21 C          64.2653   91.4368   13.1589 C.ar    1  UNL1       -0.0036
     22 C          64.8015   91.2619   14.5487 C.ar    1  UNL1       -0.0101
     23 C          66.2034   91.6875   14.8709 C.ar    1  UNL1        0.0331
     24 C          68.8093   93.1984   15.5038 C.3     1  UNL1        0.2525
     25 O          68.4707   92.7136   14.1253 O.3     1  UNL1       -0.4714
@<TRIPOS>BOND
     1    24    25    1
     2    25    18    1
     3    18    19   ar
     4    19    20   ar
     5    20    21   ar
     6    21    22   ar
     7    22    17    1
     8    17     1    1
     9     1     2    2
    10     1     3   am
    11     3     5    1
    12     5     6   ar
    13     6     7   ar
    14     7    10    1
    15    10    11   ar
    16    11    12   ar
    17    12    13   ar
    18    13    14   ar
    19    14    15    1
    20    14    16   ar
    21     7     8   ar
    22     8     9   ar
    23    22    23   ar
    24    23    18   ar
    25     9     5   ar
    26    16    10   ar
    27     3     4    1
@<TRIPOS>MOLECULE
*****
 25 27 0 0 0
SMALL
GASTEIGER

@<TRIPOS>ATOM
      1 C          63.8783   89.5201   15.1019 C.2     1  UNL1        0.2309
      2 O          62.4680   89.3740   15.5915 O.2     1  UNL1       -0.2744
      3 N          64.6981   88.3004   14.8015 N.am    1  UNL1       -0.2787
      4 H          65.6237   88.3962   14.4802 H       1  UNL1        0.1553
      5 C          64.1076   86.9345   14.9907 C.ar    1  UNL1        0.0807
      6 C          63.9754   85.8772   13.9350 C.ar    1  UNL1        0.0219
      7 C          63.3317   84.6755   14.5606 C.ar    1  UNL1        0.0084
      8 C          63.0661   84.9900   16.0030 C.ar    1  UNL1        0.0367
      9 S          63.5456   86.3862   16.2688 S.2     1  UNL1       -0.0717
     10 C          63.0101   83.3856   13.8658 C.ar    1  UNL1        0.0045
     11 C          62.2335   82.3210   14.5824 C.ar    1  UNL1        0.0208
     12 C          61.9119   81.0311   13.8877 C.ar    1  UNL1        0.0998
     13 N          62.3668   80.8057   12.4762 N.ar    1  UNL1       -0.2324
     14 C          63.1434   81.8703   11.7595 C.ar    1  UNL1        0.1384
     15 CL         63.5984   81.6450   10.3481 Cl      1  UNL1       -0.0613
     16 C          63.4650   83.1602   12.4543 C.ar    1  UNL1        0.0308
     17 C          64.4688   90.8859   14.9128 C.3     1  UNL1        0.1118
     18 C          63.9653   91.5710   11.0362 C.ar    1  UNL1        0.1384
     19 C          65.1052   92.5071   10.7634 C.ar    1  UNL1        0.0369
     20 C          66.0329   92.9028   11.8737 C.ar    1  UNL1        0.0028
     21 C          65.8208   92.3625   13.2568 C.ar    1  UNL1       -0.0036
     22 C          64.6810   91.4263   13.5296 C.ar    1  UNL1       -0.0101
     23 C          63.7532   91.0306   12.4193 C.ar    1  UNL1        0.0331
     24 C          62.0173   90.0986   10.1490 C.3     1  UNL1        0.2525
     25 O          63.0376   91.1752    9.9260 O.3     1  UNL1       -0.4714
@<TRIPOS>BOND
     1    24    25    1
     2    25    18    1
     3    18    19   ar
     4    19    20   ar
     5    20    21   ar
     6    21    22   ar
     7    22    17    1
     8    17     1    1
     9     1     2    2
    10     1     3   am
    11     3     5    1
    12     5     6   ar
    13     6     7   ar
    14     7    10    1
    15    10    11   ar
    16    11    12   ar
    17    12    13   ar
    18    13    14   ar
    19    14    15    1
    20    14    16   ar
    21     7     8   ar
    22     8     9   ar
    23    22    23   ar
    24    23    18   ar
    25     9     5   ar
    26    16    10   ar
    27     3     4    1
@<TRIPOS>MOLECULE
*****
 25 27 0 0 0
SMALL
GASTEIGER

@<TRIPOS>ATOM
      1 C          63.6353   89.8041   15.0347 C.2     1  UNL1        0.2309
      2 O          62.4247   89.4840   15.8605 O.2     1  UNL1       -0.2744
      3 N          64.4814   88.6951   14.4828 N.am    1  UNL1       -0.2787
      4 H          65.2760   88.9052   13.9408 H       1  UNL1        0.1553
      5 C          64.1168   87.2662   14.7567 C.ar    1  UNL1        0.0807
      6 C          63.8551   86.2097   13.7246 C.ar    1  UNL1        0.0219
      7 C          63.5264   84.9333   14.4408 C.ar    1  UNL1        0.0084
      8 C          63.5851   85.2010   15.9156 C.ar    1  UNL1        0.0367
      9 S          63.9499   86.6428   16.1108 S.2     1  UNL1       -0.0717
     10 C          63.1970   83.6199   13.7956 C.ar    1  UNL1        0.0045
     11 C          62.4526   82.5709   14.5673 C.ar    1  UNL1        0.0208
     12 C          62.1232   81.2575   13.9222 C.ar    1  UNL1        0.0998
     13 N          62.5382   80.9929   12.5051 N.ar    1  UNL1       -0.2324
     14 C          63.2826   82.0419   11.7334 C.ar    1  UNL1        0.1384
     15 CL         63.6975   81.7774   10.3164 Cl      1  UNL1       -0.0613
     16 C          63.6120   83.3554   12.3786 C.ar    1  UNL1        0.0308
     17 C          63.9999   91.2331   14.7608 C.3     1  UNL1        0.1118
     18 C          67.7517   91.9316   13.6717 C.ar    1  UNL1        0.1384
     19 C          68.3059   92.5289   14.9311 C.ar    1  UNL1        0.0369
     20 C          67.4248   92.6943   16.1337 C.ar    1  UNL1        0.0028
     21 C          65.9895   92.2623   16.0769 C.ar    1  UNL1       -0.0036
     22 C          65.4353   91.6650   14.8176 C.ar    1  UNL1       -0.0101
     23 C          66.3164   91.4997   13.6149 C.ar    1  UNL1        0.0331
     24 C          68.0808   92.0094   11.0957 C.3     1  UNL1        0.2525
     25 O          68.6329   91.7662   12.4691 O.3     1  UNL1       -0.4714
@<TRIPOS>BOND
     1    24    25    1
     2    25    18    1
     3    18    19   ar
     4    19    20   ar
     5    20    21   ar
     6    21    22   ar
     7    22    17    1
     8    17     1    1
     9     1     2    2
    10     1     3   am
    11     3     5    1
    12     5     6   ar
    13     6     7   ar
    14     7    10    1
    15    10    11   ar
    16    11    12   ar
    17    12    13   ar
    18    13    14   ar
    19    14    15    1
    20    14    16   ar
    21     7     8   ar
    22     8     9   ar
    23    22    23   ar
    24    23    18   ar
    25     9     5   ar
    26    16    10   ar
    27     3     4    1
@<TRIPOS>MOLECULE
*****
 25 27 0 0 0
SMALL
GASTEIGER

@<TRIPOS>ATOM
      1 C          62.2557   86.6833   10.6088 C.2     1  UNL1        0.2309
      2 O          62.7662   87.2161    9.3029 O.2     1  UNL1       -0.2744
      3 N          62.2377   87.5644   11.8227 N.am    1  UNL1       -0.2787
      4 H          61.9026   87.2147   12.6798 H       1  UNL1        0.1553
      5 C          62.7302   88.9782   11.7306 C.ar    1  UNL1        0.0807
      6 C          63.8033   89.5949   12.5778 C.ar    1  UNL1        0.0219
      7 C          63.9724   91.0214   12.1459 C.ar    1  UNL1        0.0084
      8 C          63.0037   91.2863   11.0317 C.ar    1  UNL1        0.0367
      9 S          62.2360   90.0235   10.7750 S.2     1  UNL1       -0.0717
     10 C          64.9402   92.0096   12.7263 C.ar    1  UNL1        0.0045
     11 C          65.4632   93.1326   11.8806 C.ar    1  UNL1        0.0208
     12 C          66.4310   94.1207   12.4609 C.ar    1  UNL1        0.0998
     13 N          66.8759   93.9859   13.8872 N.ar    1  UNL1       -0.2324
     14 C          66.3529   92.8628   14.7329 C.ar    1  UNL1        0.1384
     15 CL         66.7978   92.7280   16.1590 Cl      1  UNL1       -0.0613
     16 C          65.3851   91.8747   14.1525 C.ar    1  UNL1        0.0308
     17 C          61.7632   85.2694   10.7009 C.3     1  UNL1        0.1118
     18 C          63.6002   83.0040   13.3922 C.ar    1  UNL1        0.1384
     19 C          64.3850   82.0864   12.5022 C.ar    1  UNL1        0.0369
     20 C          64.2959   82.2299   11.0117 C.ar    1  UNL1        0.0028
     21 C          63.4220   83.2909   10.4113 C.ar    1  UNL1       -0.0036
     22 C          62.6372   84.2084   11.3013 C.ar    1  UNL1       -0.0101
     23 C          62.7263   84.0649   12.7918 C.ar    1  UNL1        0.0331
     24 C          62.7434   83.6177   15.7669 C.3     1  UNL1        0.2525
     25 O          63.6893   82.8605   14.8827 O.3     1  UNL1       -0.4714
@<TRIPOS>BOND
     1    24    25    1
     2    25    18    1
     3    18    19   ar
     4    19    20   ar
     5    20    21   ar
     6    21    22   ar
     7    22    17    1
     8    17     1    1
     9     1     2    2
    10     1     3   am
    11     3     5    1
    12     5     6   ar
    13     6     7   ar
    14     7    10    1
    15    10    11   ar
    16    11    12   ar
    17    12    13   ar
    18    13    14   ar
    19    14    15    1
    20    14    16   ar
    21     7     8   ar
    22     8     9   ar
    23    22    23   ar
    24    23    18   ar
    25     9     5   ar
    26    16    10   ar
    27     3     4    1
@<TRIPOS>MOLECULE
*****
 25 27 0 0 0
SMALL
GASTEIGER

@<TRIPOS>ATOM
      1 C          63.1160   89.3946   12.3240 C.2     1  UNL1        0.2309
      2 O          63.8541   88.5904   13.3528 O.2     1  UNL1       -0.2744
      3 N          62.3708   88.7005   11.2226 N.am    1  UNL1       -0.2787
      4 H          61.8864   89.2283   10.5473 H       1  UNL1        0.1553
      5 C          62.3637   87.2023   11.1501 C.ar    1  UNL1        0.0807
      6 C          62.7203   86.2640   12.2647 C.ar    1  UNL1        0.0219
      7 C          62.5757   84.8611   11.7538 C.ar    1  UNL1        0.0084
      8 C          62.1297   84.9324   10.3233 C.ar    1  UNL1        0.0367
      9 S          61.9987   86.3794    9.9503 S.2     1  UNL1       -0.0717
     10 C          62.8321   83.6071   12.5359 C.ar    1  UNL1        0.0045
     11 C          63.3215   83.6928   13.9512 C.ar    1  UNL1        0.0208
     12 C          63.5779   82.4389   14.7334 C.ar    1  UNL1        0.0998
     13 N          63.3449   81.0991   14.1002 N.ar    1  UNL1       -0.2324
     14 C          62.8555   81.0134   12.6849 C.ar    1  UNL1        0.1384
     15 CL         62.6224   79.6737   12.0517 Cl      1  UNL1       -0.0613
     16 C          62.5991   82.2674   11.9027 C.ar    1  UNL1        0.0308
     17 C          63.1232   90.8928   12.3965 C.3     1  UNL1        0.1118
     18 C          66.6452   92.6650   12.8491 C.ar    1  UNL1        0.1384
     19 C          66.8877   93.1730   11.4588 C.ar    1  UNL1        0.0369
     20 C          65.8753   92.9209   10.3810 C.ar    1  UNL1        0.0028
     21 C          64.6205   92.1609   10.6935 C.ar    1  UNL1       -0.0036
     22 C          64.3780   91.6529   12.0839 C.ar    1  UNL1       -0.0101
     23 C          65.3904   91.9049   13.1617 C.ar    1  UNL1        0.0331
     24 C          67.7555   91.9836   15.0970 C.3     1  UNL1        0.2525
     25 O          67.6575   92.9170   13.9270 O.3     1  UNL1       -0.4714
@<TRIPOS>BOND
     1    24    25    1
     2    25    18    1
     3    18    19   ar
     4    19    20   ar
     5    20    21   ar
     6    21    22   ar
     7    22    17    1
     8    17     1    1
     9     1     2    2
    10     1     3   am
    11     3     5    1
    12     5     6   ar
    13     6     7   ar
    14     7    10    1
    15    10    11   ar
    16    11    12   ar
    17    12    13   ar
    18    13    14   ar
    19    14    15    1
    20    14    16   ar
    21     7     8   ar
    22     8     9   ar
    23    22    23   ar
    24    23    18   ar
    25     9     5   ar
    26    16    10   ar
    27     3     4    1
@<TRIPOS>MOLECULE
*****
 25 27 0 0 0
SMALL
GASTEIGER

@<TRIPOS>ATOM
      1 C          63.6214   90.3601   14.5720 C.2     1  UNL1        0.2309
      2 O          63.7429   88.9105   14.9378 O.2     1  UNL1       -0.2744
      3 N          62.9240   90.7579   13.3048 N.am    1  UNL1       -0.2787
      4 H          62.8442   91.7093   13.0647 H       1  UNL1        0.1553
      5 C          62.3483   89.7061   12.4037 C.ar    1  UNL1        0.0807
      6 C          63.0771   88.5103   11.8661 C.ar    1  UNL1        0.0219
      7 C          62.1219   87.7306   11.0120 C.ar    1  UNL1        0.0084
      8 C          60.8026   88.4444   11.0216 C.ar    1  UNL1        0.0367
      9 S          60.9426   89.6653   11.8817 S.2     1  UNL1       -0.0717
     10 C          62.4315   86.4600   10.2773 C.ar    1  UNL1        0.0045
     11 C          62.3777   86.4281    8.7786 C.ar    1  UNL1        0.0208
     12 C          62.6873   85.1577    8.0438 C.ar    1  UNL1        0.0998
     13 N          63.0508   83.9189    8.8077 N.ar    1  UNL1       -0.2324
     14 C          63.1047   83.9508   10.3064 C.ar    1  UNL1        0.1384
     15 CL         63.4681   82.7122   11.0703 Cl      1  UNL1       -0.0613
     16 C          62.7950   85.2214   11.0412 C.ar    1  UNL1        0.0308
     17 C          64.1971   91.4119   15.4732 C.3     1  UNL1        0.1118
     18 C          67.7444   92.0355   13.8064 C.ar    1  UNL1        0.1384
     19 C          68.4434   92.7869   14.9003 C.ar    1  UNL1        0.0369
     20 C          67.7270   93.0801   16.1852 C.ar    1  UNL1        0.0028
     21 C          66.3116   92.6217   16.3761 C.ar    1  UNL1       -0.0036
     22 C          65.6126   91.8703   15.2822 C.ar    1  UNL1       -0.0101
     23 C          66.3290   91.5771   13.9974 C.ar    1  UNL1        0.0331
     24 C          67.8422   92.1326   11.2120 C.3     1  UNL1        0.2525
     25 O          68.4608   91.7424   12.5216 O.3     1  UNL1       -0.4714
@<TRIPOS>BOND
     1    24    25    1
     2    25    18    1
     3    18    19   ar
     4    19    20   ar
     5    20    21   ar
     6    21    22   ar
     7    22    17    1
     8    17     1    1
     9     1     2    2
    10     1     3   am
    11     3     5    1
    12     5     6   ar
    13     6     7   ar
    14     7    10    1
    15    10    11   ar
    16    11    12   ar
    17    12    13   ar
    18    13    14   ar
    19    14    15    1
    20    14    16   ar
    21     7     8   ar
    22     8     9   ar
    23    22    23   ar
    24    23    18   ar
    25     9     5   ar
    26    16    10   ar
    27     3     4    1
@<TRIPOS>MOLECULE
*****
 25 27 0 0 0
SMALL
GASTEIGER

@<TRIPOS>ATOM
      1 C          63.6798   89.4790   13.7569 C.2     1  UNL1        0.2309
      2 O          63.8661   88.0322   13.4078 O.2     1  UNL1       -0.2744
      3 N          62.5241   90.2457   13.1853 N.am    1  UNL1       -0.2787
      4 H          62.4018   91.1953   13.4144 H       1  UNL1        0.1553
      5 C          61.5547   89.5654   12.2647 C.ar    1  UNL1        0.0807
      6 C          61.9101   88.6562   11.1258 C.ar    1  UNL1        0.0219
      7 C          60.6348   88.2038   10.4785 C.ar    1  UNL1        0.0084
      8 C          59.4912   88.8335   11.2174 C.ar    1  UNL1        0.0367
      9 S          60.0598   89.6750   12.3212 S.2     1  UNL1       -0.0717
     10 C          60.5228   87.2834    9.2994 C.ar    1  UNL1        0.0045
     11 C          59.2338   87.1940    8.5376 C.ar    1  UNL1        0.0208
     12 C          59.1216   86.2736    7.3585 C.ar    1  UNL1        0.0998
     13 N          60.2987   85.4425    6.9412 N.ar    1  UNL1       -0.2324
     14 C          61.5877   85.5319    7.7031 C.ar    1  UNL1        0.1384
     15 CL         62.7646   84.7008    7.2859 Cl      1  UNL1       -0.0613
     16 C          61.6997   86.4523    8.8822 C.ar    1  UNL1        0.0308
     17 C          64.6491   90.1593   14.6776 C.3     1  UNL1        0.1118
     18 C          66.9037   93.4239   14.7726 C.ar    1  UNL1        0.1384
     19 C          66.7063   93.9453   13.3801 C.ar    1  UNL1        0.0369
     20 C          65.8232   93.2048   12.4201 C.ar    1  UNL1        0.0028
     21 C          65.1375   91.9428   12.8525 C.ar    1  UNL1       -0.0036
     22 C          65.3349   91.4213   14.2450 C.ar    1  UNL1       -0.0101
     23 C          66.2180   92.1619   15.2051 C.ar    1  UNL1        0.0331
     24 C          69.1438   93.6236   16.0734 C.3     1  UNL1        0.2525
     25 O          67.7868   94.1645   15.7326 O.3     1  UNL1       -0.4714
@<TRIPOS>BOND
     1    24    25    1
     2    25    18    1
     3    18    19   ar
     4    19    20   ar
     5    20    21   ar
     6    21    22   ar
     7    22    17    1
     8    17     1    1
     9     1     2    2
    10     1     3   am
    11     3     5    1
    12     5     6   ar
    13     6     7   ar
    14     7    10    1
    15    10    11   ar
    16    11    12   ar
    17    12    13   ar
    18    13    14   ar
    19    14    15    1
    20    14    16   ar
    21     7     8   ar
    22     8     9   ar
    23    22    23   ar
    24    23    18   ar
    25     9     5   ar
    26    16    10   ar
    27     3     4    1
@<TRIPOS>MOLECULE
*****
 25 27 0 0 0
SMALL
GASTEIGER

@<TRIPOS>ATOM
      1 C          63.7830   89.4551   13.8330 C.2     1  UNL1        0.2309
      2 O          63.8043   87.9914   13.5054 O.2     1  UNL1       -0.2744
      3 N          62.7972   90.3608   13.1563 N.am    1  UNL1       -0.2787
      4 H          62.7831   91.3214   13.3713 H       1  UNL1        0.1553
      5 C          61.8328   89.8029   12.1520 C.ar    1  UNL1        0.0807
      6 C          62.1206   88.7097   11.1661 C.ar    1  UNL1        0.0219
      7 C          60.8769   88.4714   10.3620 C.ar    1  UNL1        0.0084
      8 C          59.8204   89.4173   10.8510 C.ar    1  UNL1        0.0367
      9 S          60.4112   90.2402   11.9573 S.2     1  UNL1       -0.0717
     10 C          60.7177   87.4640    9.2621 C.ar    1  UNL1        0.0045
     11 C          59.4048   87.3339    8.5485 C.ar    1  UNL1        0.0208
     12 C          59.2454   86.3266    7.4486 C.ar    1  UNL1        0.0998
     13 N          60.3992   85.4492    7.0622 N.ar    1  UNL1       -0.2324
     14 C          61.7121   85.5793    7.7759 C.ar    1  UNL1        0.1384
     15 CL         62.8658   84.7019    7.3896 Cl      1  UNL1       -0.0613
     16 C          61.8714   86.5866    8.8758 C.ar    1  UNL1        0.0308
     17 C          64.7474   90.0130   14.8373 C.3     1  UNL1        0.1118
     18 C          66.1637   93.1718   12.8966 C.ar    1  UNL1        0.1384
     19 C          66.8643   93.8963   14.0075 C.ar    1  UNL1        0.0369
     20 C          66.8593   93.3264   15.3950 C.ar    1  UNL1        0.0028
     21 C          66.1537   92.0319   15.6716 C.ar    1  UNL1       -0.0036
     22 C          65.4531   91.3075   14.5607 C.ar    1  UNL1       -0.0101
     23 C          65.4580   91.8774   13.1732 C.ar    1  UNL1        0.0331
     24 C          65.3358   93.1076   10.4349 C.3     1  UNL1        0.2525
     25 O          66.1686   93.7418   11.5091 O.3     1  UNL1       -0.4714
@<TRIPOS>BOND
     1    24    25    1
     2    25    18    1
     3    18    19   ar
     4    19    20   ar
     5    20    21   ar
     6    21    22   ar
     7    22    17    1
     8    17     1    1
     9     1     2    2
    10     1     3   am
    11     3     5    1
    12     5     6   ar
    13     6     7   ar
    14     7    10    1
    15    10    11   ar
    16    11    12   ar
    17    12    13   ar
    18    13    14   ar
    19    14    15    1
    20    14    16   ar
    21     7     8   ar
    22     8     9   ar
    23    22    23   ar
    24    23    18   ar
    25     9     5   ar
    26    16    10   ar
    27     3     4    1
