@<TRIPOS>MOLECULE
*****
 25 28 0 0 0
SMALL
GASTEIGER

@<TRIPOS>ATOM
      1 O          65.0742   92.6122   11.8849 O.2     1  UNL1       -0.2486
      2 C          64.6354   91.3466   12.5598 C.2     1  UNL1        0.3279
      3 N          65.3059   90.9001   13.8252 N.am    1  UNL1       -0.2403
      4 C          64.8672   89.6345   14.5001 C.3     1  UNL1        0.1079
      5 C          63.7579   88.8152   13.9098 C.3     1  UNL1        0.0863
      6 C          63.0874   89.2617   12.6444 C.ar    1  UNL1        0.1290
      7 N          61.9746   88.6660   11.8341 N.ar    1  UNL1       -0.2310
      8 C          61.7256   89.5634   10.6583 C.ar    1  UNL1        0.1215
      9 C          62.6845   90.7139   10.7420 C.ar    1  UNL1        0.1037
     10 N          63.5262   90.5274   11.9695 N.ar    1  UNL1       -0.2473
     11 C          66.4152   91.7193   14.4155 C.ar    1  UNL1        0.0556
     12 C          66.1852   92.4927   15.6800 C.ar    1  UNL1        0.0173
     13 C          67.2944   93.3119   16.2703 C.ar    1  UNL1        0.0309
     14 C          68.6336   93.3578   15.5962 C.ar    1  UNL1        0.1402
     15 F          69.7428   94.1770   16.1866 F       1  UNL1       -0.2042
     16 C          68.8636   92.5844   14.3317 C.ar    1  UNL1        0.0309
     17 C          67.7543   91.7651   13.7414 C.ar    1  UNL1        0.0173
     18 C          60.6981   89.3483    9.5869 C.3     1  UNL1        0.2524
     19 O          60.0816   87.9937    9.4002 O.3     1  UNL1       -0.4689
     20 C          60.8445   86.9137    8.6919 C.ar    1  UNL1        0.1391
     21 C          62.2403   86.5746    9.1242 C.ar    1  UNL1        0.0369
     22 C          63.0033   85.4946    8.4159 C.ar    1  UNL1        0.0031
     23 C          62.3705   84.7538    7.2754 C.ar    1  UNL1        0.0002
     24 C          60.9748   85.0929    6.8431 C.ar    1  UNL1        0.0031
     25 C          60.2118   86.1728    7.5514 C.ar    1  UNL1        0.0369
@<TRIPOS>BOND
     1     1     2    2
     2     2     3   am
     3     3    11    1
     4    11    12   ar
     5    12    13   ar
     6    13    14   ar
     7    14    15    1
     8    14    16   ar
     9    16    17   ar
    10     3     4    1
    11     4     5    1
    12     5     6    1
    13     6     7   ar
    14     7     8   ar
    15     8    18    1
    16    18    19    1
    17    19    20    1
    18    20    21   ar
    19    21    22   ar
    20    22    23   ar
    21    23    24   ar
    22    24    25   ar
    23     8     9   ar
    24     9    10   ar
    25    10     2   am
    26    17    11   ar
    27    10     6   ar
    28    25    20   ar
@<TRIPOS>MOLECULE
*****
 25 28 0 0 0
SMALL
GASTEIGER

@<TRIPOS>ATOM
      1 O          64.3884   89.9904   14.5860 O.2     1  UNL1       -0.2486
      2 C          64.3055   90.6540   13.2434 C.2     1  UNL1        0.3279
      3 N          65.3099   91.7003   12.8605 N.am    1  UNL1       -0.2403
      4 C          65.2270   92.3638   11.5180 C.3     1  UNL1        0.1079
      5 C          64.1396   91.9812   10.5580 C.3     1  UNL1        0.0863
      6 C          63.1353   90.9349   10.9408 C.ar    1  UNL1        0.1290
      7 N          61.9611   90.3554   10.2091 N.ar    1  UNL1       -0.2310
      8 C          61.3184   89.3337   11.0995 C.ar    1  UNL1        0.1215
      9 C          62.0953   89.2817   12.3816 C.ar    1  UNL1        0.1037
     10 N          63.2182   90.2713   12.2835 N.ar    1  UNL1       -0.2473
     11 C          66.3972   92.0829   13.8205 C.ar    1  UNL1        0.0556
     12 C          67.8351   91.8794   13.4448 C.ar    1  UNL1        0.0173
     13 C          68.9224   92.2620   14.4046 C.ar    1  UNL1        0.0309
     14 C          68.5719   92.8481   15.7402 C.ar    1  UNL1        0.1402
     15 F          69.6592   93.2306   16.7000 F       1  UNL1       -0.2042
     16 C          67.1340   93.0516   16.1159 C.ar    1  UNL1        0.0309
     17 C          66.0467   92.6689   15.1559 C.ar    1  UNL1        0.0173
     18 C          60.1107   88.5087   10.7663 C.3     1  UNL1        0.2524
     19 O          60.1919   87.4567    9.7002 O.3     1  UNL1       -0.4689
     20 C          61.2713   86.4164    9.7537 C.ar    1  UNL1        0.1391
     21 C          62.0369   86.0656    8.5124 C.ar    1  UNL1        0.0369
     22 C          63.1163   85.0254    8.5659 C.ar    1  UNL1        0.0031
     23 C          63.4302   84.3360    9.8606 C.ar    1  UNL1        0.0002
     24 C          62.6646   84.6869   11.1019 C.ar    1  UNL1        0.0031
     25 C          61.5852   85.7271   11.0484 C.ar    1  UNL1        0.0369
@<TRIPOS>BOND
     1     1     2    2
     2     2     3   am
     3     3    11    1
     4    11    12   ar
     5    12    13   ar
     6    13    14   ar
     7    14    15    1
     8    14    16   ar
     9    16    17   ar
    10     3     4    1
    11     4     5    1
    12     5     6    1
    13     6     7   ar
    14     7     8   ar
    15     8    18    1
    16    18    19    1
    17    19    20    1
    18    20    21   ar
    19    21    22   ar
    20    22    23   ar
    21    23    24   ar
    22    24    25   ar
    23     8     9   ar
    24     9    10   ar
    25    10     2   am
    26    17    11   ar
    27    10     6   ar
    28    25    20   ar
@<TRIPOS>MOLECULE
*****
 25 28 0 0 0
SMALL
GASTEIGER

@<TRIPOS>ATOM
      1 O          62.5403   85.7030   11.3953 O.2     1  UNL1       -0.2486
      2 C          63.2639   85.9475   12.6862 C.2     1  UNL1        0.3279
      3 N          63.6731   84.7897   13.5476 N.am    1  UNL1       -0.2403
      4 C          64.3967   85.0341   14.8385 C.3     1  UNL1        0.1079
      5 C          64.7112   86.4365   15.2682 C.3     1  UNL1        0.0863
      6 C          64.3020   87.5943   14.4068 C.ar    1  UNL1        0.1290
      7 N          64.4735   89.0756   14.5688 N.ar    1  UNL1       -0.2310
      8 C          63.8560   89.7467   13.3779 C.ar    1  UNL1        0.1215
      9 C          63.3027   88.6801   12.4799 C.ar    1  UNL1        0.1037
     10 N          63.5783   87.3498   13.1159 N.ar    1  UNL1       -0.2473
     11 C          63.3587   83.3873   13.1178 C.ar    1  UNL1        0.0556
     12 C          62.5706   82.4852   14.0207 C.ar    1  UNL1        0.0173
     13 C          62.2562   81.0829   13.5911 C.ar    1  UNL1        0.0309
     14 C          62.7297   80.5827   12.2586 C.ar    1  UNL1        0.1402
     15 F          62.4152   79.1803   11.8289 F       1  UNL1       -0.2042
     16 C          63.5177   81.4848   11.3557 C.ar    1  UNL1        0.0309
     17 C          63.8322   82.8871   11.7854 C.ar    1  UNL1        0.0173
     18 C          63.8012   91.2248   13.1286 C.3     1  UNL1        0.2524
     19 O          65.0551   91.9753   12.7903 O.3     1  UNL1       -0.4689
     20 C          66.1222   92.1592   13.8284 C.ar    1  UNL1        0.1391
     21 C          65.7454   92.5097   15.2373 C.ar    1  UNL1        0.0369
     22 C          66.8124   92.6936   16.2754 C.ar    1  UNL1        0.0031
     23 C          68.2563   92.5271   15.9046 C.ar    1  UNL1        0.0002
     24 C          68.6331   92.1766   14.4956 C.ar    1  UNL1        0.0031
     25 C          67.5661   91.9927   13.4575 C.ar    1  UNL1        0.0369
@<TRIPOS>BOND
     1     1     2    2
     2     2     3   am
     3     3    11    1
     4    11    12   ar
     5    12    13   ar
     6    13    14   ar
     7    14    15    1
     8    14    16   ar
     9    16    17   ar
    10     3     4    1
    11     4     5    1
    12     5     6    1
    13     6     7   ar
    14     7     8   ar
    15     8    18    1
    16    18    19    1
    17    19    20    1
    18    20    21   ar
    19    21    22   ar
    20    22    23   ar
    21    23    24   ar
    22    24    25   ar
    23     8     9   ar
    24     9    10   ar
    25    10     2   am
    26    17    11   ar
    27    10     6   ar
    28    25    20   ar
@<TRIPOS>MOLECULE
*****
 25 28 0 0 0
SMALL
GASTEIGER

@<TRIPOS>ATOM
      1 O          64.0042   85.5649   14.3517 O.2     1  UNL1       -0.2486
      2 C          63.3004   86.0425   13.1161 C.2     1  UNL1        0.3279
      3 N          62.5976   85.0605   12.2263 N.am    1  UNL1       -0.2403
      4 C          61.8939   85.5381   10.9908 C.3     1  UNL1        0.1079
      5 C          61.8929   86.9978   10.6450 C.3     1  UNL1        0.0863
      6 C          62.5957   87.9797   11.5348 C.ar    1  UNL1        0.1290
      7 N          62.7636   89.4680   11.4517 N.ar    1  UNL1       -0.2310
      8 C          63.5711   89.9101   12.6359 C.ar    1  UNL1        0.1215
      9 C          63.9023   88.6952   13.4509 C.ar    1  UNL1        0.1037
     10 N          63.2995   87.5021   12.7703 N.ar    1  UNL1       -0.2473
     11 C          62.5986   83.6009   12.5721 C.ar    1  UNL1        0.0556
     12 C          63.0233   82.5884   11.5501 C.ar    1  UNL1        0.0173
     13 C          63.0243   81.1288   11.8959 C.ar    1  UNL1        0.0309
     14 C          62.6007   80.6817   13.2636 C.ar    1  UNL1        0.1402
     15 F          62.6017   79.2221   13.6093 F       1  UNL1       -0.2042
     16 C          62.1760   81.6942   14.2855 C.ar    1  UNL1        0.0309
     17 C          62.1750   83.1538   13.9397 C.ar    1  UNL1        0.0173
     18 C          63.9763   91.3198   12.9500 C.3     1  UNL1        0.2524
     19 O          64.3715   91.6927   14.3481 O.3     1  UNL1       -0.4689
     20 C          65.8039   92.0065   14.6642 C.ar    1  UNL1        0.1391
     21 C          66.8769   91.7040   13.6606 C.ar    1  UNL1        0.0369
     22 C          68.3094   92.0177   13.9765 C.ar    1  UNL1        0.0031
     23 C          68.6688   92.6340   15.2960 C.ar    1  UNL1        0.0002
     24 C          67.5958   92.9365   16.2995 C.ar    1  UNL1        0.0031
     25 C          66.1634   92.6227   15.9836 C.ar    1  UNL1        0.0369
@<TRIPOS>BOND
     1     1     2    2
     2     2     3   am
     3     3    11    1
     4    11    12   ar
     5    12    13   ar
     6    13    14   ar
     7    14    15    1
     8    14    16   ar
     9    16    17   ar
    10     3     4    1
    11     4     5    1
    12     5     6    1
    13     6     7   ar
    14     7     8   ar
    15     8    18    1
    16    18    19    1
    17    19    20    1
    18    20    21   ar
    19    21    22   ar
    20    22    23   ar
    21    23    24   ar
    22    24    25   ar
    23     8     9   ar
    24     9    10   ar
    25    10     2   am
    26    17    11   ar
    27    10     6   ar
    28    25    20   ar
@<TRIPOS>MOLECULE
*****
 25 28 0 0 0
SMALL
GASTEIGER

@<TRIPOS>ATOM
      1 O          62.7497   86.5193   11.9024 O.2     1  UNL1       -0.2486
      2 C          62.6571   87.9520   11.4677 C.2     1  UNL1        0.3279
      3 N          62.2290   88.2852   10.0693 N.am    1  UNL1       -0.2403
      4 C          62.1365   89.7178    9.6346 C.3     1  UNL1        0.1079
      5 C          62.4720   90.8172   10.5983 C.3     1  UNL1        0.0863
      6 C          62.9001   90.4840   11.9967 C.ar    1  UNL1        0.1290
      7 N          63.2908   91.3474   13.1594 N.ar    1  UNL1       -0.2310
      8 C          63.6248   90.4484   14.3127 C.ar    1  UNL1        0.1215
      9 C          63.4406   89.0293   13.8629 C.ar    1  UNL1        0.1037
     10 N          62.9926   89.0513   12.4315 N.ar    1  UNL1       -0.2473
     11 C          61.8935   87.1858    9.1056 C.ar    1  UNL1        0.0556
     12 C          62.9494   86.2048    8.6898 C.ar    1  UNL1        0.0173
     13 C          62.6139   85.1054    7.7261 C.ar    1  UNL1        0.0309
     14 C          61.2226   84.9869    7.1782 C.ar    1  UNL1        0.1402
     15 F          60.8872   83.8874    6.2146 F       1  UNL1       -0.2042
     16 C          60.1667   85.9678    7.5940 C.ar    1  UNL1        0.0309
     17 C          60.5023   87.0673    8.5577 C.ar    1  UNL1        0.0173
     18 C          64.0657   90.8907   15.6766 C.3     1  UNL1        0.2524
     19 O          64.8232   92.1750   15.8401 O.3     1  UNL1       -0.4689
     20 C          66.2556   92.2616   15.4033 C.ar    1  UNL1        0.1391
     21 C          66.6440   91.8383   14.0177 C.ar    1  UNL1        0.0369
     22 C          68.0764   91.9249   13.5808 C.ar    1  UNL1        0.0031
     23 C          69.1203   92.4348   14.5296 C.ar    1  UNL1        0.0002
     24 C          68.7319   92.8581   15.9152 C.ar    1  UNL1        0.0031
     25 C          67.2996   92.7715   16.3520 C.ar    1  UNL1        0.0369
@<TRIPOS>BOND
     1     1     2    2
     2     2     3   am
     3     3    11    1
     4    11    12   ar
     5    12    13   ar
     6    13    14   ar
     7    14    15    1
     8    14    16   ar
     9    16    17   ar
    10     3     4    1
    11     4     5    1
    12     5     6    1
    13     6     7   ar
    14     7     8   ar
    15     8    18    1
    16    18    19    1
    17    19    20    1
    18    20    21   ar
    19    21    22   ar
    20    22    23   ar
    21    23    24   ar
    22    24    25   ar
    23     8     9   ar
    24     9    10   ar
    25    10     2   am
    26    17    11   ar
    27    10     6   ar
    28    25    20   ar
@<TRIPOS>MOLECULE
*****
 25 28 0 0 0
SMALL
GASTEIGER

@<TRIPOS>ATOM
      1 O          64.3845   85.2056   14.5723 O.2     1  UNL1       -0.2486
      2 C          63.7581   86.0704   13.5188 C.2     1  UNL1        0.3279
      3 N          63.0379   85.4416   12.3630 N.am    1  UNL1       -0.2403
      4 C          62.4116   86.3064   11.3096 C.3     1  UNL1        0.1079
      5 C          62.5054   87.8000   11.4119 C.3     1  UNL1        0.0863
      6 C          63.2256   88.4287   12.5677 C.ar    1  UNL1        0.1290
      7 N          63.4790   89.8613   12.9330 N.ar    1  UNL1       -0.2310
      8 C          64.2620   89.8819   14.2122 C.ar    1  UNL1        0.1215
      9 C          64.4925   88.4621   14.6376 C.ar    1  UNL1        0.1037
     10 N          63.8520   87.5639   13.6212 N.ar    1  UNL1       -0.2473
     11 C          62.9441   83.9480   12.2607 C.ar    1  UNL1        0.0556
     12 C          62.3140   83.1585   13.3695 C.ar    1  UNL1        0.0173
     13 C          62.2202   81.6649   13.2673 C.ar    1  UNL1        0.0309
     14 C          62.7565   80.9609   12.0562 C.ar    1  UNL1        0.1402
     15 F          62.6626   79.4673   11.9539 F       1  UNL1       -0.2042
     16 C          63.3866   81.7504   10.9473 C.ar    1  UNL1        0.0309
     17 C          63.4804   83.2440   11.0496 C.ar    1  UNL1        0.0173
     18 C          64.7320   91.1072   14.9387 C.3     1  UNL1        0.2524
     19 O          65.0594   92.3543   14.1721 O.3     1  UNL1       -0.4689
     20 C          66.0215   92.2972   13.0227 C.ar    1  UNL1        0.1391
     21 C          67.4431   91.8783   13.2547 C.ar    1  UNL1        0.0369
     22 C          68.4053   91.8212   12.1054 C.ar    1  UNL1        0.0031
     23 C          67.9460   92.1829   10.7241 C.ar    1  UNL1        0.0002
     24 C          66.5244   92.6017   10.4920 C.ar    1  UNL1        0.0031
     25 C          65.5622   92.6588   11.6413 C.ar    1  UNL1        0.0369
@<TRIPOS>BOND
     1     1     2    2
     2     2     3   am
     3     3    11    1
     4    11    12   ar
     5    12    13   ar
     6    13    14   ar
     7    14    15    1
     8    14    16   ar
     9    16    17   ar
    10     3     4    1
    11     4     5    1
    12     5     6    1
    13     6     7   ar
    14     7     8   ar
    15     8    18    1
    16    18    19    1
    17    19    20    1
    18    20    21   ar
    19    21    22   ar
    20    22    23   ar
    21    23    24   ar
    22    24    25   ar
    23     8     9   ar
    24     9    10   ar
    25    10     2   am
    26    17    11   ar
    27    10     6   ar
    28    25    20   ar
@<TRIPOS>MOLECULE
*****
 25 28 0 0 0
SMALL
GASTEIGER

@<TRIPOS>ATOM
      1 O          64.4032   91.6494   11.2741 O.2     1  UNL1       -0.2486
      2 C          64.9652   92.0208   12.6144 C.2     1  UNL1        0.3279
      3 N          65.9928   93.1082   12.7215 N.am    1  UNL1       -0.2403
      4 C          66.5547   93.4797   14.0617 C.3     1  UNL1        0.1079
      5 C          66.0891   92.7637   15.2949 C.3     1  UNL1        0.0863
      6 C          65.0614   91.6763   15.1877 C.ar    1  UNL1        0.1290
      7 N          64.4152   90.8009   16.2201 N.ar    1  UNL1       -0.2310
      8 C          63.4538   89.8884   15.5180 C.ar    1  UNL1        0.1215
      9 C          63.5059   90.1999   14.0516 C.ar    1  UNL1        0.1037
     10 N          64.4995   91.3049   13.8475 N.ar    1  UNL1       -0.2473
     11 C          66.4585   93.8242   11.4883 C.ar    1  UNL1        0.0556
     12 C          67.2371   93.0848   10.4409 C.ar    1  UNL1        0.0173
     13 C          67.7027   93.8007    9.2077 C.ar    1  UNL1        0.0309
     14 C          67.3898   95.2559    9.0220 C.ar    1  UNL1        0.1402
     15 F          67.8555   95.9717    7.7889 F       1  UNL1       -0.2042
     16 C          66.6113   95.9952   10.0694 C.ar    1  UNL1        0.0309
     17 C          66.1456   95.2793   11.3026 C.ar    1  UNL1        0.0173
     18 C          62.5916   88.8472   16.1680 C.3     1  UNL1        0.2524
     19 O          63.2229   87.6718   16.8534 O.3     1  UNL1       -0.4689
     20 C          63.4243   86.3870   16.1058 C.ar    1  UNL1        0.1391
     21 C          64.5501   86.2599   15.1228 C.ar    1  UNL1        0.0369
     22 C          64.7516   84.9752   14.3752 C.ar    1  UNL1        0.0031
     23 C          63.8271   83.8176   14.6105 C.ar    1  UNL1        0.0002
     24 C          62.7013   83.9447   15.5935 C.ar    1  UNL1        0.0031
     25 C          62.4999   85.2295   16.3411 C.ar    1  UNL1        0.0369
@<TRIPOS>BOND
     1     1     2    2
     2     2     3   am
     3     3    11    1
     4    11    12   ar
     5    12    13   ar
     6    13    14   ar
     7    14    15    1
     8    14    16   ar
     9    16    17   ar
    10     3     4    1
    11     4     5    1
    12     5     6    1
    13     6     7   ar
    14     7     8   ar
    15     8    18    1
    16    18    19    1
    17    19    20    1
    18    20    21   ar
    19    21    22   ar
    20    22    23   ar
    21    23    24   ar
    22    24    25   ar
    23     8     9   ar
    24     9    10   ar
    25    10     2   am
    26    17    11   ar
    27    10     6   ar
    28    25    20   ar
@<TRIPOS>MOLECULE
*****
 25 28 0 0 0
SMALL
GASTEIGER

@<TRIPOS>ATOM
      1 O          63.3817   85.4758   12.0588 O.2     1  UNL1       -0.2486
      2 C          63.4656   85.8066   13.5194 C.2     1  UNL1        0.3279
      3 N          63.3021   84.7236   14.5443 N.am    1  UNL1       -0.2403
      4 C          63.3860   85.0543   16.0049 C.3     1  UNL1        0.1079
      5 C          63.6335   86.4681   16.4408 C.3     1  UNL1        0.0863
      6 C          63.7971   87.5511   15.4159 C.ar    1  UNL1        0.1290
      7 N          64.0488   89.0243   15.5439 N.ar    1  UNL1       -0.2310
      8 C          64.1204   89.6040   14.1623 C.ar    1  UNL1        0.1215
      9 C          63.9130   88.4891   13.1805 C.ar    1  UNL1        0.1037
     10 N          63.7132   87.2203   13.9552 N.ar    1  UNL1       -0.2473
     11 C          63.0545   83.3098   14.1084 C.ar    1  UNL1        0.0556
     12 C          61.7674   82.6286   14.4680 C.ar    1  UNL1        0.0173
     13 C          61.5198   81.2148   14.0321 C.ar    1  UNL1        0.0309
     14 C          62.5593   80.4822   13.2367 C.ar    1  UNL1        0.1402
     15 F          62.3117   79.0685   12.8008 F       1  UNL1       -0.2042
     16 C          63.8464   81.1634   12.8771 C.ar    1  UNL1        0.0309
     17 C          64.0940   82.5772   13.3130 C.ar    1  UNL1        0.0173
     18 C          64.3578   91.0455   13.8222 C.3     1  UNL1        0.2524
     19 O          65.7134   91.4944   13.3632 O.3     1  UNL1       -0.4689
     20 C          65.8408   92.6640   12.4325 C.ar    1  UNL1        0.1391
     21 C          66.2448   94.0064   12.9660 C.ar    1  UNL1        0.0369
     22 C          66.3722   95.1759   12.0355 C.ar    1  UNL1        0.0031
     23 C          66.0956   95.0031   10.5714 C.ar    1  UNL1        0.0002
     24 C          65.6916   93.6606   10.0379 C.ar    1  UNL1        0.0031
     25 C          65.5642   92.4911   10.9684 C.ar    1  UNL1        0.0369
@<TRIPOS>BOND
     1     1     2    2
     2     2     3   am
     3     3    11    1
     4    11    12   ar
     5    12    13   ar
     6    13    14   ar
     7    14    15    1
     8    14    16   ar
     9    16    17   ar
    10     3     4    1
    11     4     5    1
    12     5     6    1
    13     6     7   ar
    14     7     8   ar
    15     8    18    1
    16    18    19    1
    17    19    20    1
    18    20    21   ar
    19    21    22   ar
    20    22    23   ar
    21    23    24   ar
    22    24    25   ar
    23     8     9   ar
    24     9    10   ar
    25    10     2   am
    26    17    11   ar
    27    10     6   ar
    28    25    20   ar
@<TRIPOS>MOLECULE
*****
 25 28 0 0 0
SMALL
GASTEIGER

@<TRIPOS>ATOM
      1 O          62.4790   85.3064   11.7126 O.2     1  UNL1       -0.2486
      2 C          63.1775   85.6770   12.9873 C.2     1  UNL1        0.3279
      3 N          63.5098   84.6176   13.9959 N.am    1  UNL1       -0.2403
      4 C          64.2083   84.9882   15.2704 C.3     1  UNL1        0.1079
      5 C          64.5745   86.4183   15.5366 C.3     1  UNL1        0.0863
      6 C          64.2423   87.4777   14.5281 C.ar    1  UNL1        0.1290
      7 N          64.4768   88.9592   14.5143 N.ar    1  UNL1       -0.2310
      8 C          63.9232   89.5041   13.2311 C.ar    1  UNL1        0.1215
      9 C          63.3466   88.3595   12.4518 C.ar    1  UNL1        0.1037
     10 N          63.5438   87.1071   13.2534 N.ar    1  UNL1       -0.2473
     11 C          63.1435   83.1875   13.7297 C.ar    1  UNL1        0.0556
     12 C          62.0432   82.5367   14.5143 C.ar    1  UNL1        0.0173
     13 C          61.6769   81.1066   14.2482 C.ar    1  UNL1        0.0309
     14 C          62.4109   80.3274   13.1974 C.ar    1  UNL1        0.1402
     15 F          62.0446   78.8974   12.9313 F       1  UNL1       -0.2042
     16 C          63.5112   80.9783   12.4128 C.ar    1  UNL1        0.0309
     17 C          63.8775   82.4084   12.6790 C.ar    1  UNL1        0.0173
     18 C          63.9429   90.9415   12.8025 C.3     1  UNL1        0.2524
     19 O          62.9175   91.4489   11.8324 O.3     1  UNL1       -0.4689
     20 C          61.9035   90.5078   11.2524 C.ar    1  UNL1        0.1391
     21 C          60.6676   90.1647   12.0301 C.ar    1  UNL1        0.0369
     22 C          59.6536   89.2237   11.4503 C.ar    1  UNL1        0.0031
     23 C          59.8754   88.6258   10.0926 C.ar    1  UNL1        0.0002
     24 C          61.1113   88.9689    9.3148 C.ar    1  UNL1        0.0031
     25 C          62.1253   89.9099    9.8947 C.ar    1  UNL1        0.0369
@<TRIPOS>BOND
     1     1     2    2
     2     2     3   am
     3     3    11    1
     4    11    12   ar
     5    12    13   ar
     6    13    14   ar
     7    14    15    1
     8    14    16   ar
     9    16    17   ar
    10     3     4    1
    11     4     5    1
    12     5     6    1
    13     6     7   ar
    14     7     8   ar
    15     8    18    1
    16    18    19    1
    17    19    20    1
    18    20    21   ar
    19    21    22   ar
    20    22    23   ar
    21    23    24   ar
    22    24    25   ar
    23     8     9   ar
    24     9    10   ar
    25    10     2   am
    26    17    11   ar
    27    10     6   ar
    28    25    20   ar
