@<TRIPOS>MOLECULE
*****
 36 40 0 0 0
SMALL
GASTEIGER

@<TRIPOS>ATOM
      1 N          63.5499   88.8506   14.0890 N.3     1  UNL1       -0.2679
      2 C          63.3932   89.5825   12.7891 C.3     1  UNL1        0.0978
      3 C          64.1516   90.8540   12.5482 C.3     1  UNL1        0.0224
      4 C          63.9949   91.5859   11.2482 C.3     1  UNL1        0.0065
      5 C          63.0797   91.0463   10.1893 C.3     1  UNL1        0.0277
      6 C          62.3213   89.7748   10.4303 C.ar    1  UNL1       -0.0073
      7 C          61.4062   89.2352    9.3714 C.ar    1  UNL1       -0.0015
      8 C          60.6478   87.9637    9.6123 C.ar    1  UNL1        0.0203
      9 C          60.8044   87.2318   10.9122 C.ar    1  UNL1        0.0985
     10 N          61.7196   87.7714   11.9711 N.ar    1  UNL1       -0.2471
     11 C          62.4780   89.0429   11.7301 C.ar    1  UNL1        0.0695
     12 C          64.4321   87.6399   14.1665 C.3     1  UNL1        0.0886
     13 C          61.9497   81.2841   13.3351 C.ar    1  UNL1       -0.0003
     14 C          62.5147   81.7649   12.0315 C.ar    1  UNL1       -0.0003
     15 C          63.1242   83.1322   11.9370 C.ar    1  UNL1       -0.0045
     16 C          63.1687   84.0187   13.1462 C.ar    1  UNL1       -0.0234
     17 C          62.6036   83.5379   14.4498 C.ar    1  UNL1       -0.0103
     18 C          61.9941   82.1706   14.5443 C.ar    1  UNL1       -0.0032
     19 C          62.6480   84.4244   15.6591 C.3     1  UNL1        0.0953
     20 N          63.2575   85.7917   15.5646 N.3     1  UNL1       -0.2934
     21 C          63.8226   86.2725   14.2609 C.3     1  UNL1        0.0748
     22 C          63.7782   85.3861   13.0518 C.3     1  UNL1        0.0432
     23 H          64.0174   85.8230   16.2443 H       1  UNL1        0.1236
     24 C          62.8243   89.3293   15.3115 C.3     1  UNL1        0.0725
     25 C          63.5253   90.2099   16.3030 C.3     1  UNL1        0.0188
     26 C          64.3500   91.3684   15.8256 C.3     1  UNL1        0.0185
     27 C          64.9160   92.3441   16.8145 C.3     1  UNL1        0.0689
     28 N          66.2473   92.9854   16.5574 N.3     1  UNL1       -0.2937
     29 H          66.7155   93.0640   17.4602 H       1  UNL1        0.1236
     30 C          67.2225   92.3390   15.6187 C.3     1  UNL1        0.0957
     31 C          67.1762   92.6565   14.1534 C.ar    1  UNL1       -0.0033
     32 C          67.8938   91.7775   13.1725 C.ar    1  UNL1        0.0178
     33 C          67.8475   92.0951   11.7072 C.ar    1  UNL1        0.0986
     34 N          67.0836   93.2917   11.2229 N.ar    1  UNL1       -0.2423
     35 C          66.3660   94.1707   12.2039 C.ar    1  UNL1        0.0986
     36 C          66.4123   93.8531   13.6691 C.ar    1  UNL1        0.0178
@<TRIPOS>BOND
     1    13    14   ar
     2    14    15   ar
     3    15    16   ar
     4    16    17   ar
     5    17    18   ar
     6    17    19    1
     7    19    20    1
     8    20    21    1
     9    21    12    1
    10    12     1    1
    11     1    24    1
    12    24    25    1
    13    25    26    1
    14    26    27    1
    15    27    28    1
    16    28    30    1
    17    30    31    1
    18    31    32   ar
    19    32    33   ar
    20    33    34   ar
    21    34    35   ar
    22    35    36   ar
    23     2     1    1
    24     2     3    1
    25     3     4    1
    26     4     5    1
    27     5     6    1
    28     6     7   ar
    29     7     8   ar
    30     8     9   ar
    31     9    10   ar
    32    10    11   ar
    33    21    22    1
    34    18    13   ar
    35    36    31   ar
    36    11     2    1
    37    22    16    1
    38    11     6   ar
    39    20    23    1
    40    28    29    1
@<TRIPOS>MOLECULE
*****
 36 40 0 0 0
SMALL
GASTEIGER

@<TRIPOS>ATOM
      1 N          62.9891   90.7056   12.2732 N.3     1  UNL1       -0.2679
      2 C          64.2099   91.5499   12.0572 C.3     1  UNL1        0.0978
      3 C          64.6156   91.9399   10.6667 C.3     1  UNL1        0.0224
      4 C          65.8365   92.7842   10.4507 C.3     1  UNL1        0.0065
      5 C          66.6517   93.2384   11.6251 C.3     1  UNL1        0.0277
      6 C          66.2459   92.8484   13.0155 C.ar    1  UNL1       -0.0073
      7 C          67.0611   93.3027   14.1899 C.ar    1  UNL1       -0.0015
      8 C          66.6554   92.9127   15.5803 C.ar    1  UNL1        0.0203
      9 C          65.4345   92.0684   15.7964 C.ar    1  UNL1        0.0985
     10 N          64.6194   91.6142   14.6220 N.ar    1  UNL1       -0.2471
     11 C          65.0251   92.0042   13.2316 C.ar    1  UNL1        0.0695
     12 C          61.7978   90.8661   11.3759 C.3     1  UNL1        0.0886
     13 C          61.1689   85.2822    7.4168 C.ar    1  UNL1       -0.0003
     14 C          62.4867   85.2314    8.1316 C.ar    1  UNL1       -0.0003
     15 C          62.8760   86.3380    9.0664 C.ar    1  UNL1       -0.0045
     16 C          61.9476   87.4954    9.2864 C.ar    1  UNL1       -0.0234
     17 C          60.6298   87.5462    8.5716 C.ar    1  UNL1       -0.0103
     18 C          60.2405   86.4396    7.6368 C.ar    1  UNL1       -0.0032
     19 C          59.7013   88.7036    8.7915 C.3     1  UNL1        0.0953
     20 N          60.0906   89.8103    9.7263 N.3     1  UNL1       -0.2934
     21 C          61.4085   89.7595   10.4411 C.3     1  UNL1        0.0748
     22 C          62.3369   88.6021   10.2212 C.3     1  UNL1        0.0432
     23 H          59.3678   89.8571   10.4444 H       1  UNL1        0.1236
     24 C          62.9594   89.7009   13.3866 C.3     1  UNL1        0.0725
     25 C          63.9050   88.5366   13.3715 C.3     1  UNL1        0.0188
     26 C          64.3274   87.8967   14.6607 C.3     1  UNL1        0.0185
     27 C          64.3986   86.4022   14.7682 C.3     1  UNL1        0.0689
     28 N          63.5061   85.5459   13.9196 N.3     1  UNL1       -0.2937
     29 H          64.0786   85.1940   13.1522 H       1  UNL1        0.1236
     30 C          62.8117   84.3600   14.5208 C.3     1  UNL1        0.0957
     31 C          62.7467   83.0661   13.7648 C.ar    1  UNL1       -0.0033
     32 C          62.0393   81.8847   14.3595 C.ar    1  UNL1        0.0178
     33 C          61.9743   80.5908   13.6035 C.ar    1  UNL1        0.0986
     34 N          62.6167   80.4782   12.2528 N.ar    1  UNL1       -0.2423
     35 C          63.3241   81.6596   11.6580 C.ar    1  UNL1        0.0986
     36 C          63.3891   82.9536   12.4140 C.ar    1  UNL1        0.0178
@<TRIPOS>BOND
     1    13    14   ar
     2    14    15   ar
     3    15    16   ar
     4    16    17   ar
     5    17    18   ar
     6    17    19    1
     7    19    20    1
     8    20    21    1
     9    21    12    1
    10    12     1    1
    11     1    24    1
    12    24    25    1
    13    25    26    1
    14    26    27    1
    15    27    28    1
    16    28    30    1
    17    30    31    1
    18    31    32   ar
    19    32    33   ar
    20    33    34   ar
    21    34    35   ar
    22    35    36   ar
    23     2     1    1
    24     2     3    1
    25     3     4    1
    26     4     5    1
    27     5     6    1
    28     6     7   ar
    29     7     8   ar
    30     8     9   ar
    31     9    10   ar
    32    10    11   ar
    33    21    22    1
    34    18    13   ar
    35    36    31   ar
    36    11     2    1
    37    22    16    1
    38    11     6   ar
    39    20    23    1
    40    28    29    1
@<TRIPOS>MOLECULE
*****
 36 40 0 0 0
SMALL
GASTEIGER

@<TRIPOS>ATOM
      1 N          63.3981   88.9000   13.5066 N.3     1  UNL1       -0.2679
      2 C          62.9244   89.1993   12.1152 C.3     1  UNL1        0.0978
      3 C          63.0384   90.5909   11.5672 C.3     1  UNL1        0.0224
      4 C          62.5647   90.8901   10.1757 C.3     1  UNL1        0.0065
      5 C          61.9769   89.7977    9.3324 C.3     1  UNL1        0.0277
      6 C          61.8629   88.4061    9.8805 C.ar    1  UNL1       -0.0073
      7 C          61.2752   87.3137    9.0372 C.ar    1  UNL1       -0.0015
      8 C          61.1611   85.9221    9.5852 C.ar    1  UNL1        0.0203
      9 C          61.6348   85.6228   10.9766 C.ar    1  UNL1        0.0985
     10 N          62.2226   86.7152   11.8199 N.ar    1  UNL1       -0.2471
     11 C          62.3366   88.1068   11.2719 C.ar    1  UNL1        0.0695
     12 C          63.1853   89.9015   14.6030 C.3     1  UNL1        0.0886
     13 C          68.9887   93.4546   15.5754 C.ar    1  UNL1       -0.0003
     14 C          69.1474   92.5753   14.3707 C.ar    1  UNL1       -0.0003
     15 C          68.0185   91.6888   13.9352 C.ar    1  UNL1       -0.0045
     16 C          66.7308   91.6816   14.7046 C.ar    1  UNL1       -0.0234
     17 C          66.5722   92.5610   15.9093 C.ar    1  UNL1       -0.0103
     18 C          67.7011   93.4475   16.3448 C.ar    1  UNL1       -0.0032
     19 C          65.2845   92.5538   16.6787 C.3     1  UNL1        0.0953
     20 N          64.1555   91.6673   16.2433 N.3     1  UNL1       -0.2934
     21 C          64.3143   90.7880   15.0384 C.3     1  UNL1        0.0748
     22 C          65.6019   90.7951   14.2691 C.3     1  UNL1        0.0432
     23 H          63.3572   92.2754   16.0609 H       1  UNL1        0.1236
     24 C          64.0845   87.5994   13.8018 C.3     1  UNL1        0.0725
     25 C          64.2326   87.1344   15.2201 C.3     1  UNL1        0.0188
     26 C          64.2187   85.6677   15.5339 C.3     1  UNL1        0.0185
     27 C          62.9468   85.0075   15.9773 C.3     1  UNL1        0.0689
     28 N          62.5169   83.7128   15.3537 N.3     1  UNL1       -0.2937
     29 H          61.8852   83.9498   14.5888 H       1  UNL1        0.1236
     30 C          63.5430   82.7734   14.7928 C.3     1  UNL1        0.0957
     31 C          63.6070   82.5286   13.3143 C.ar    1  UNL1       -0.0033
     32 C          64.3959   83.4526   12.4346 C.ar    1  UNL1        0.0178
     33 C          64.4600   83.2079   10.9561 C.ar    1  UNL1        0.0986
     34 N          63.7351   82.0392   10.3573 N.ar    1  UNL1       -0.2423
     35 C          62.9462   81.1152   11.2369 C.ar    1  UNL1        0.0986
     36 C          62.8822   81.3599   12.7154 C.ar    1  UNL1        0.0178
@<TRIPOS>BOND
     1    13    14   ar
     2    14    15   ar
     3    15    16   ar
     4    16    17   ar
     5    17    18   ar
     6    17    19    1
     7    19    20    1
     8    20    21    1
     9    21    12    1
    10    12     1    1
    11     1    24    1
    12    24    25    1
    13    25    26    1
    14    26    27    1
    15    27    28    1
    16    28    30    1
    17    30    31    1
    18    31    32   ar
    19    32    33   ar
    20    33    34   ar
    21    34    35   ar
    22    35    36   ar
    23     2     1    1
    24     2     3    1
    25     3     4    1
    26     4     5    1
    27     5     6    1
    28     6     7   ar
    29     7     8   ar
    30     8     9   ar
    31     9    10   ar
    32    10    11   ar
    33    21    22    1
    34    18    13   ar
    35    36    31   ar
    36    11     2    1
    37    22    16    1
    38    11     6   ar
    39    20    23    1
    40    28    29    1
@<TRIPOS>MOLECULE
*****
 36 40 0 0 0
SMALL
GASTEIGER

@<TRIPOS>ATOM
      1 N          63.8807   90.1647   14.4096 N.3     1  UNL1       -0.2679
      2 C          64.8755   91.2868   14.4434 C.3     1  UNL1        0.0978
      3 C          65.5527   91.6502   15.7315 C.3     1  UNL1        0.0224
      4 C          66.5475   92.7724   15.7653 C.3     1  UNL1        0.0065
      5 C          66.8650   93.5312   14.5110 C.3     1  UNL1        0.0277
      6 C          66.1878   93.1679   13.2229 C.ar    1  UNL1       -0.0073
      7 C          66.5053   93.9267   11.9685 C.ar    1  UNL1       -0.0015
      8 C          65.8280   93.5633   10.6804 C.ar    1  UNL1        0.0203
      9 C          64.8333   92.4412   10.6466 C.ar    1  UNL1        0.0985
     10 N          64.5158   91.6824   11.9009 N.ar    1  UNL1       -0.2471
     11 C          65.1930   92.0457   13.1890 C.ar    1  UNL1        0.0695
     12 C          63.9808   89.1053   13.3524 C.3     1  UNL1        0.0886
     13 C          59.6943   87.5257    8.2161 C.ar    1  UNL1       -0.0003
     14 C          60.5958   86.3563    8.4805 C.ar    1  UNL1       -0.0003
     15 C          61.6333   86.4384    9.5607 C.ar    1  UNL1       -0.0045
     16 C          61.7695   87.6898   10.3764 C.ar    1  UNL1       -0.0234
     17 C          60.8681   88.8591   10.1119 C.ar    1  UNL1       -0.0103
     18 C          59.8305   88.7771    9.0318 C.ar    1  UNL1       -0.0032
     19 C          61.0042   90.1106   10.9276 C.3     1  UNL1        0.0953
     20 N          62.0418   90.1927   12.0078 N.3     1  UNL1       -0.2934
     21 C          62.9432   89.0232   12.2722 C.3     1  UNL1        0.0748
     22 C          62.8071   87.7718   11.4565 C.3     1  UNL1        0.0432
     23 H          61.5461   90.3851   12.8782 H       1  UNL1        0.1236
     24 C          62.7858   90.1019   15.4329 C.3     1  UNL1        0.0725
     25 C          62.9557   89.2597   16.6624 C.3     1  UNL1        0.0188
     26 C          63.5124   87.8714   16.5495 C.3     1  UNL1        0.0185
     27 C          62.7851   86.7185   17.1754 C.3     1  UNL1        0.0689
     28 N          62.5323   85.4711   16.3814 N.3     1  UNL1       -0.2937
     29 H          61.6263   85.5893   15.9279 H       1  UNL1        0.1236
     30 C          63.4995   85.0526   15.3141 C.3     1  UNL1        0.0957
     31 C          63.0997   84.0192   14.3030 C.ar    1  UNL1       -0.0033
     32 C          63.3207   84.2749   12.8416 C.ar    1  UNL1        0.0178
     33 C          62.9209   83.2415   11.8306 C.ar    1  UNL1        0.0986
     34 N          62.3001   81.9524   12.2809 N.ar    1  UNL1       -0.2423
     35 C          62.0791   81.6967   13.7423 C.ar    1  UNL1        0.0986
     36 C          62.4789   82.7301   14.7534 C.ar    1  UNL1        0.0178
@<TRIPOS>BOND
     1    13    14   ar
     2    14    15   ar
     3    15    16   ar
     4    16    17   ar
     5    17    18   ar
     6    17    19    1
     7    19    20    1
     8    20    21    1
     9    21    12    1
    10    12     1    1
    11     1    24    1
    12    24    25    1
    13    25    26    1
    14    26    27    1
    15    27    28    1
    16    28    30    1
    17    30    31    1
    18    31    32   ar
    19    32    33   ar
    20    33    34   ar
    21    34    35   ar
    22    35    36   ar
    23     2     1    1
    24     2     3    1
    25     3     4    1
    26     4     5    1
    27     5     6    1
    28     6     7   ar
    29     7     8   ar
    30     8     9   ar
    31     9    10   ar
    32    10    11   ar
    33    21    22    1
    34    18    13   ar
    35    36    31   ar
    36    11     2    1
    37    22    16    1
    38    11     6   ar
    39    20    23    1
    40    28    29    1
@<TRIPOS>MOLECULE
*****
 36 40 0 0 0
SMALL
GASTEIGER

@<TRIPOS>ATOM
      1 N          63.5012   89.8072   13.2577 N.3     1  UNL1       -0.2679
      2 C          64.4276   90.8872   13.7324 C.3     1  UNL1        0.0978
      3 C          64.7866   90.9822   15.1857 C.3     1  UNL1        0.0224
      4 C          65.7130   92.0623   15.6603 C.3     1  UNL1        0.0065
      5 C          66.2803   93.0474   14.6817 C.3     1  UNL1        0.0277
      6 C          65.9213   92.9524   13.2284 C.ar    1  UNL1       -0.0073
      7 C          66.4886   93.9375   12.2498 C.ar    1  UNL1       -0.0015
      8 C          66.1295   93.8425   10.7965 C.ar    1  UNL1        0.0203
      9 C          65.2032   92.7625   10.3218 C.ar    1  UNL1        0.0985
     10 N          64.6359   91.7774   11.3004 N.ar    1  UNL1       -0.2471
     11 C          64.9949   91.8724   12.7537 C.ar    1  UNL1        0.0695
     12 C          62.1703   90.1669   12.6666 C.3     1  UNL1        0.0886
     13 C          60.7797   85.8855    7.4718 C.ar    1  UNL1       -0.0003
     14 C          62.0543   85.4551    8.1350 C.ar    1  UNL1       -0.0003
     15 C          62.5874   86.2252    9.3066 C.ar    1  UNL1       -0.0045
     16 C          61.8458   87.4259    9.8150 C.ar    1  UNL1       -0.0234
     17 C          60.5711   87.8563    9.1518 C.ar    1  UNL1       -0.0103
     18 C          60.0381   87.0861    7.9801 C.ar    1  UNL1       -0.0032
     19 C          59.8294   89.0570    9.6601 C.3     1  UNL1        0.0953
     20 N          60.3625   89.8272   10.8317 N.3     1  UNL1       -0.2934
     21 C          61.6372   89.3967   11.4950 C.3     1  UNL1        0.0748
     22 C          62.3788   88.1961   10.9866 C.3     1  UNL1        0.0432
     23 H          59.6375   89.8113   11.5490 H       1  UNL1        0.1236
     24 C          63.9057   88.3674   13.3741 C.3     1  UNL1        0.0725
     25 C          64.3803   87.8258   14.6899 C.3     1  UNL1        0.0188
     26 C          64.6522   86.3586   14.8428 C.3     1  UNL1        0.0185
     27 C          63.8005   85.5293   15.7578 C.3     1  UNL1        0.0689
     28 N          63.4959   84.1023   15.4104 N.3     1  UNL1       -0.2937
     29 H          63.1842   83.6501   16.2699 H       1  UNL1        0.1236
     30 C          62.4722   83.7881   14.3600 C.3     1  UNL1        0.0957
     31 C          62.8935   83.1512   13.0689 C.ar    1  UNL1       -0.0033
     32 C          62.4857   81.7411   12.7602 C.ar    1  UNL1        0.0178
     33 C          62.9069   81.1042   11.4691 C.ar    1  UNL1        0.0986
     34 N          63.7359   81.8774   10.4867 N.ar    1  UNL1       -0.2423
     35 C          64.1437   83.2874   10.7955 C.ar    1  UNL1        0.0986
     36 C          63.7224   83.9243   12.0866 C.ar    1  UNL1        0.0178
@<TRIPOS>BOND
     1    13    14   ar
     2    14    15   ar
     3    15    16   ar
     4    16    17   ar
     5    17    18   ar
     6    17    19    1
     7    19    20    1
     8    20    21    1
     9    21    12    1
    10    12     1    1
    11     1    24    1
    12    24    25    1
    13    25    26    1
    14    26    27    1
    15    27    28    1
    16    28    30    1
    17    30    31    1
    18    31    32   ar
    19    32    33   ar
    20    33    34   ar
    21    34    35   ar
    22    35    36   ar
    23     2     1    1
    24     2     3    1
    25     3     4    1
    26     4     5    1
    27     5     6    1
    28     6     7   ar
    29     7     8   ar
    30     8     9   ar
    31     9    10   ar
    32    10    11   ar
    33    21    22    1
    34    18    13   ar
    35    36    31   ar
    36    11     2    1
    37    22    16    1
    38    11     6   ar
    39    20    23    1
    40    28    29    1
@<TRIPOS>MOLECULE
*****
 36 40 0 0 0
SMALL
GASTEIGER

@<TRIPOS>ATOM
      1 N          63.2414   88.7895   13.2599 N.3     1  UNL1       -0.2679
      2 C          63.7012   87.4206   13.6658 C.3     1  UNL1        0.0978
      3 C          64.5527   87.2473   14.8884 C.3     1  UNL1        0.0224
      4 C          65.0124   85.8783   15.2943 C.3     1  UNL1        0.0065
      5 C          64.6206   84.6828   14.4776 C.3     1  UNL1        0.0277
      6 C          63.7691   84.8561   13.2549 C.ar    1  UNL1       -0.0073
      7 C          63.3773   83.6606   12.4382 C.ar    1  UNL1       -0.0015
      8 C          62.5258   83.8339   11.2155 C.ar    1  UNL1        0.0203
      9 C          62.0660   85.2028   10.8096 C.ar    1  UNL1        0.0985
     10 N          62.4578   86.3983   11.6264 N.ar    1  UNL1       -0.2471
     11 C          63.3094   86.2250   12.8490 C.ar    1  UNL1        0.0695
     12 C          62.9766   89.8323   14.3051 C.3     1  UNL1        0.0886
     13 C          68.7792   93.2765   15.6156 C.ar    1  UNL1       -0.0003
     14 C          68.9624   92.4622   14.3692 C.ar    1  UNL1       -0.0003
     15 C          67.8385   91.6105   13.8579 C.ar    1  UNL1       -0.0045
     16 C          66.5314   91.5731   14.5928 C.ar    1  UNL1       -0.0234
     17 C          66.3483   92.3874   15.8392 C.ar    1  UNL1       -0.0103
     18 C          67.4722   93.2391   16.3505 C.ar    1  UNL1       -0.0032
     19 C          65.0412   92.3500   16.5742 C.3     1  UNL1        0.0953
     20 N          63.9173   91.4983   16.0629 N.3     1  UNL1       -0.2934
     21 C          64.1005   90.6840   14.8164 C.3     1  UNL1        0.0748
     22 C          65.4075   90.7214   14.0815 C.3     1  UNL1        0.0432
     23 H          63.1284   92.1224   15.8936 H       1  UNL1        0.1236
     24 C          63.0466   89.1156   11.8088 C.3     1  UNL1        0.0725
     25 C          62.4174   90.4177   11.4106 C.3     1  UNL1        0.0188
     26 C          62.7942   91.0666   10.1118 C.3     1  UNL1        0.0185
     27 C          63.8725   92.1089   10.0791 C.3     1  UNL1        0.0689
     28 N          64.9633   92.0920   11.1086 N.3     1  UNL1       -0.2937
     29 H          65.0435   91.1296   11.4369 H       1  UNL1        0.1236
     30 C          66.3469   92.5413   10.7428 C.3     1  UNL1        0.0957
     31 C          66.6003   93.9769   10.3894 C.ar    1  UNL1       -0.0033
     32 C          66.1872   95.0662   11.3343 C.ar    1  UNL1        0.0178
     33 C          66.4406   96.5017   10.9808 C.ar    1  UNL1        0.0986
     34 N          67.1070   96.8480    9.6824 N.ar    1  UNL1       -0.2423
     35 C          67.5201   95.7588    8.7375 C.ar    1  UNL1        0.0986
     36 C          67.2667   94.3232    9.0910 C.ar    1  UNL1        0.0178
@<TRIPOS>BOND
     1    13    14   ar
     2    14    15   ar
     3    15    16   ar
     4    16    17   ar
     5    17    18   ar
     6    17    19    1
     7    19    20    1
     8    20    21    1
     9    21    12    1
    10    12     1    1
    11     1    24    1
    12    24    25    1
    13    25    26    1
    14    26    27    1
    15    27    28    1
    16    28    30    1
    17    30    31    1
    18    31    32   ar
    19    32    33   ar
    20    33    34   ar
    21    34    35   ar
    22    35    36   ar
    23     2     1    1
    24     2     3    1
    25     3     4    1
    26     4     5    1
    27     5     6    1
    28     6     7   ar
    29     7     8   ar
    30     8     9   ar
    31     9    10   ar
    32    10    11   ar
    33    21    22    1
    34    18    13   ar
    35    36    31   ar
    36    11     2    1
    37    22    16    1
    38    11     6   ar
    39    20    23    1
    40    28    29    1
@<TRIPOS>MOLECULE
*****
 36 40 0 0 0
SMALL
GASTEIGER

@<TRIPOS>ATOM
      1 N          63.1079   84.7996   14.3378 N.3     1  UNL1       -0.2679
      2 C          62.6975   83.4184   13.9209 C.3     1  UNL1        0.0978
      3 C          61.8316   82.5891   14.8223 C.3     1  UNL1        0.0224
      4 C          61.4212   81.2079   14.4054 C.3     1  UNL1        0.0065
      5 C          61.8767   80.6559   13.0872 C.3     1  UNL1        0.0277
      6 C          62.7426   81.4852   12.1858 C.ar    1  UNL1       -0.0073
      7 C          63.1981   80.9333   10.8675 C.ar    1  UNL1       -0.0015
      8 C          64.0641   81.7625    9.9661 C.ar    1  UNL1        0.0203
      9 C          64.4745   83.1437   10.3830 C.ar    1  UNL1        0.0985
     10 N          64.0189   83.6957   11.7012 N.ar    1  UNL1       -0.2471
     11 C          63.1530   82.8664   12.6026 C.ar    1  UNL1        0.0695
     12 C          63.8705   85.6744   13.3874 C.3     1  UNL1        0.0886
     13 C          60.0330   88.8842    8.6735 C.ar    1  UNL1       -0.0003
     14 C          59.8730   87.4017    8.5103 C.ar    1  UNL1       -0.0003
     15 C          60.6085   86.4633    9.4204 C.ar    1  UNL1       -0.0045
     16 C          61.5040   87.0073   10.4938 C.ar    1  UNL1       -0.0234
     17 C          61.6640   88.4897   10.6570 C.ar    1  UNL1       -0.0103
     18 C          60.9285   89.4282    9.7468 C.ar    1  UNL1       -0.0032
     19 C          62.5596   89.0338   11.7304 C.3     1  UNL1        0.0953
     20 N          63.2951   88.0954   12.6405 N.3     1  UNL1       -0.2934
     21 C          63.1350   86.6128   12.4772 C.3     1  UNL1        0.0748
     22 C          62.2395   86.0688   11.4039 C.3     1  UNL1        0.0432
     23 H          63.0045   88.3199   13.5921 H       1  UNL1        0.1236
     24 C          62.7556   85.3061   15.7051 C.3     1  UNL1        0.0725
     25 C          63.5731   86.3945   16.3353 C.3     1  UNL1        0.0188
     26 C          62.8951   87.5067   17.0790 C.3     1  UNL1        0.0185
     27 C          63.1764   88.9341   16.7135 C.3     1  UNL1        0.0689
     28 N          63.7520   89.2644   15.3683 N.3     1  UNL1       -0.2937
     29 H          63.2565   88.6895   14.6868 H       1  UNL1        0.1236
     30 C          63.7074   90.6746   14.8591 C.3     1  UNL1        0.0957
     31 C          64.8925   91.2511   14.1428 C.ar    1  UNL1       -0.0033
     32 C          64.7337   91.8120   12.7608 C.ar    1  UNL1        0.0178
     33 C          65.9188   92.3886   12.0445 C.ar    1  UNL1        0.0986
     34 N          67.2628   92.4043   12.7103 N.ar    1  UNL1       -0.2423
     35 C          67.4217   91.8434   14.0924 C.ar    1  UNL1        0.0986
     36 C          66.2366   91.2668   14.8086 C.ar    1  UNL1        0.0178
@<TRIPOS>BOND
     1    13    14   ar
     2    14    15   ar
     3    15    16   ar
     4    16    17   ar
     5    17    18   ar
     6    17    19    1
     7    19    20    1
     8    20    21    1
     9    21    12    1
    10    12     1    1
    11     1    24    1
    12    24    25    1
    13    25    26    1
    14    26    27    1
    15    27    28    1
    16    28    30    1
    17    30    31    1
    18    31    32   ar
    19    32    33   ar
    20    33    34   ar
    21    34    35   ar
    22    35    36   ar
    23     2     1    1
    24     2     3    1
    25     3     4    1
    26     4     5    1
    27     5     6    1
    28     6     7   ar
    29     7     8   ar
    30     8     9   ar
    31     9    10   ar
    32    10    11   ar
    33    21    22    1
    34    18    13   ar
    35    36    31   ar
    36    11     2    1
    37    22    16    1
    38    11     6   ar
    39    20    23    1
    40    28    29    1
@<TRIPOS>MOLECULE
*****
 36 40 0 0 0
SMALL
GASTEIGER

@<TRIPOS>ATOM
      1 N          63.2691   85.3608   12.9563 N.3     1  UNL1       -0.2679
      2 C          63.4219   84.1327   12.1088 C.3     1  UNL1        0.0978
      3 C          64.0576   84.2309   10.7537 C.3     1  UNL1        0.0224
      4 C          64.2104   83.0026    9.9062 C.3     1  UNL1        0.0065
      5 C          63.7276   81.6763   10.4138 C.3     1  UNL1        0.0277
      6 C          63.0920   81.5781   11.7690 C.ar    1  UNL1       -0.0073
      7 C          62.6092   80.2518   12.2766 C.ar    1  UNL1       -0.0015
      8 C          61.9735   80.1536   13.6317 C.ar    1  UNL1        0.0203
      9 C          61.8207   81.3817   14.4792 C.ar    1  UNL1        0.0985
     10 N          62.3035   82.7080   13.9716 N.ar    1  UNL1       -0.2471
     11 C          62.9391   82.8062   12.6165 C.ar    1  UNL1        0.0695
     12 C          61.9516   86.0760   13.0099 C.3     1  UNL1        0.0886
     13 C          59.5173   88.7196    7.1502 C.ar    1  UNL1       -0.0003
     14 C          59.3456   87.2297    7.1253 C.ar    1  UNL1       -0.0003
     15 C          59.7981   86.4030    8.2923 C.ar    1  UNL1       -0.0045
     16 C          60.4223   87.0662    9.4841 C.ar    1  UNL1       -0.0234
     17 C          60.5940   88.5561    9.5090 C.ar    1  UNL1       -0.0103
     18 C          60.1415   89.3828    8.3420 C.ar    1  UNL1       -0.0032
     19 C          61.2182   89.2193   10.7009 C.3     1  UNL1        0.0953
     20 N          61.6707   88.3926   11.8678 N.3     1  UNL1       -0.2934
     21 C          61.4990   86.9027   11.8429 C.3     1  UNL1        0.0748
     22 C          60.8749   86.2395   10.6511 C.3     1  UNL1        0.0432
     23 H          61.1639   88.7338   12.6846 H       1  UNL1        0.1236
     24 C          64.4337   85.8738   13.7504 C.3     1  UNL1        0.0725
     25 C          64.2210   86.9222   14.8018 C.3     1  UNL1        0.0188
     26 C          64.3581   88.3743   14.4516 C.3     1  UNL1        0.0185
     27 C          63.6200   89.4104   15.2465 C.3     1  UNL1        0.0689
     28 N          63.3323   90.7536   14.6438 N.3     1  UNL1       -0.2937
     29 H          63.9356   91.4248   15.1191 H       1  UNL1        0.1236
     30 C          63.5189   90.9705   13.1714 C.3     1  UNL1        0.0957
     31 C          64.7685   91.6257   12.6622 C.ar    1  UNL1       -0.0033
     32 C          65.9407   91.8187   13.5778 C.ar    1  UNL1        0.0178
     33 C          67.1903   92.4739   13.0686 C.ar    1  UNL1        0.0986
     34 N          67.2675   92.9362   11.6438 N.ar    1  UNL1       -0.2423
     35 C          66.0953   92.7432   10.7281 C.ar    1  UNL1        0.0986
     36 C          64.8457   92.0880   11.2373 C.ar    1  UNL1        0.0178
@<TRIPOS>BOND
     1    13    14   ar
     2    14    15   ar
     3    15    16   ar
     4    16    17   ar
     5    17    18   ar
     6    17    19    1
     7    19    20    1
     8    20    21    1
     9    21    12    1
    10    12     1    1
    11     1    24    1
    12    24    25    1
    13    25    26    1
    14    26    27    1
    15    27    28    1
    16    28    30    1
    17    30    31    1
    18    31    32   ar
    19    32    33   ar
    20    33    34   ar
    21    34    35   ar
    22    35    36   ar
    23     2     1    1
    24     2     3    1
    25     3     4    1
    26     4     5    1
    27     5     6    1
    28     6     7   ar
    29     7     8   ar
    30     8     9   ar
    31     9    10   ar
    32    10    11   ar
    33    21    22    1
    34    18    13   ar
    35    36    31   ar
    36    11     2    1
    37    22    16    1
    38    11     6   ar
    39    20    23    1
    40    28    29    1
@<TRIPOS>MOLECULE
*****
 36 40 0 0 0
SMALL
GASTEIGER

@<TRIPOS>ATOM
      1 N          62.4704   87.0361   11.6436 N.3     1  UNL1       -0.2679
      2 C          63.2018   86.3067   12.7312 C.3     1  UNL1        0.0978
      3 C          63.8815   87.0764   13.8247 C.3     1  UNL1        0.0224
      4 C          64.6129   86.3470   14.9123 C.3     1  UNL1        0.0065
      5 C          64.6648   84.8479   14.9065 C.3     1  UNL1        0.0277
      6 C          63.9851   84.0782   13.8130 C.ar    1  UNL1       -0.0073
      7 C          64.0369   82.5792   13.8071 C.ar    1  UNL1       -0.0015
      8 C          63.3573   81.8095   12.7137 C.ar    1  UNL1        0.0203
      9 C          62.6259   82.5388   11.6260 C.ar    1  UNL1        0.0985
     10 N          62.5741   84.0379   11.6319 N.ar    1  UNL1       -0.2471
     11 C          63.2537   84.8076   12.7254 C.ar    1  UNL1        0.0695
     12 C          61.9190   88.4074   11.8996 C.3     1  UNL1        0.0886
     13 C          66.1839   93.7982   11.8778 C.ar    1  UNL1       -0.0003
     14 C          66.2347   93.1374   13.2234 C.ar    1  UNL1       -0.0003
     15 C          65.3918   91.9271   13.4969 C.ar    1  UNL1       -0.0045
     16 C          64.4983   91.3776   12.4248 C.ar    1  UNL1       -0.0234
     17 C          64.4475   92.0384   11.0791 C.ar    1  UNL1       -0.0103
     18 C          65.2904   93.2487   10.8056 C.ar    1  UNL1       -0.0032
     19 C          63.5539   91.4888   10.0069 C.3     1  UNL1        0.0953
     20 N          62.7111   90.2785   10.2804 N.3     1  UNL1       -0.2934
     21 C          62.7619   89.6178   11.6261 C.3     1  UNL1        0.0748
     22 C          63.6554   90.1673   12.6983 C.3     1  UNL1        0.0432
     23 H          62.9791   89.5721    9.5952 H       1  UNL1        0.1236
     24 C          62.2903   86.3942   10.2999 C.3     1  UNL1        0.0725
     25 C          60.9129   86.0705    9.8019 C.3     1  UNL1        0.0188
     26 C          60.5310   86.3948    8.3881 C.3     1  UNL1        0.0185
     27 C          59.1408   86.8635    8.0754 C.3     1  UNL1        0.0689
     28 N          58.9163   87.8734    6.9892 N.3     1  UNL1       -0.2937
     29 H          57.9082   88.0115    6.9194 H       1  UNL1        0.1236
     30 C          59.5340   89.2363    7.0930 C.3     1  UNL1        0.0957
     31 C          59.2589   90.2667    6.0382 C.ar    1  UNL1       -0.0033
     32 C          57.8474   90.6800    5.7435 C.ar    1  UNL1        0.0178
     33 C          57.5723   91.7104    4.6887 C.ar    1  UNL1        0.0986
     34 N          58.7086   92.3275    3.9286 N.ar    1  UNL1       -0.2423
     35 C          60.1201   91.9143    4.2233 C.ar    1  UNL1        0.0986
     36 C          60.3952   90.8839    5.2781 C.ar    1  UNL1        0.0178
@<TRIPOS>BOND
     1    13    14   ar
     2    14    15   ar
     3    15    16   ar
     4    16    17   ar
     5    17    18   ar
     6    17    19    1
     7    19    20    1
     8    20    21    1
     9    21    12    1
    10    12     1    1
    11     1    24    1
    12    24    25    1
    13    25    26    1
    14    26    27    1
    15    27    28    1
    16    28    30    1
    17    30    31    1
    18    31    32   ar
    19    32    33   ar
    20    33    34   ar
    21    34    35   ar
    22    35    36   ar
    23     2     1    1
    24     2     3    1
    25     3     4    1
    26     4     5    1
    27     5     6    1
    28     6     7   ar
    29     7     8   ar
    30     8     9   ar
    31     9    10   ar
    32    10    11   ar
    33    21    22    1
    34    18    13   ar
    35    36    31   ar
    36    11     2    1
    37    22    16    1
    38    11     6   ar
    39    20    23    1
    40    28    29    1
