@<TRIPOS>MOLECULE
*****
 43 45 0 0 0
SMALL
GASTEIGER

@<TRIPOS>ATOM
      1 C          62.0148   88.7732   10.7978 C.ar    1  UNL1        0.0539
      2 S          61.2304   89.4514    9.7140 S.2     1  UNL1       -0.0619
      3 C          60.4723   88.3980    8.9618 C.ar    1  UNL1        0.1641
      4 N          60.7883   87.0687    9.5808 N.ar    1  UNL1       -0.2291
      5 C          61.7415   87.3006   10.7155 C.ar    1  UNL1        0.1414
      6 C          62.3200   86.2451   11.6107 C.2     1  UNL1        0.2674
      7 O          62.2213   86.3889   13.1006 O.2     1  UNL1       -0.2682
      8 N          62.9970   85.0460   11.0162 N.am    1  UNL1       -0.2693
      9 C          63.1708   84.7670    9.5526 C.3     1  UNL1        0.0997
     10 C          63.9004   83.4638    9.4127 C.3     1  UNL1        0.0898
     11 C          64.1774   82.9374   10.7896 C.3     1  UNL1        0.2835
     12 F          64.8217   81.7999   10.0544 F       1  UNL1       -0.2024
     13 F          64.5891   82.1732   12.0130 F       1  UNL1       -0.2024
     14 C          63.6191   83.9153   11.7806 C.3     1  UNL1        0.1603
     15 C          64.7138   90.8003   13.7738 C.ar    1  UNL1        0.1333
     16 C          64.0943   89.4748   14.1043 C.ar    1  UNL1        0.0208
     17 C          63.1947   88.7991   13.1124 C.ar    1  UNL1        0.0028
     18 C          62.9144   89.4489   11.7898 C.ar    1  UNL1        0.0191
     19 C          63.5339   90.7744   11.4592 C.ar    1  UNL1        0.0700
     20 CL         63.2536   91.4243   10.1366 Cl      1  UNL1       -0.0813
     21 C          64.4335   91.4501   12.4512 C.ar    1  UNL1        0.0867
     22 CL         65.0530   92.7757   12.1206 Cl      1  UNL1       -0.0800
     23 S          65.6134   91.4760   14.7658 S.O2    1  UNL1        0.0613
     24 O          64.4132   91.9707   15.5173 O.2     1  UNL1       -0.1530
     25 O          66.8136   90.9813   14.0142 O.2     1  UNL1       -0.1530
     26 N          66.5131   92.1517   15.7577 N.3     1  UNL1       -0.1723
     27 H          65.9128   92.5258   16.4926 H       1  UNL1        0.1491
     28 C          66.9616   94.2053   14.2307 C.3     1  UNL1        0.0278
     29 C          67.4077   93.2722   15.3172 C.3     1  UNL1        0.1701
     30 C          68.7485   93.4596   15.9631 C.3     1  UNL1        0.4118
     31 F          70.0893   93.6470   16.6090 F       1  UNL1       -0.1685
     32 F          68.5821   94.9478   15.8767 F       1  UNL1       -0.1685
     33 F          68.9149   91.9713   16.0495 F       1  UNL1       -0.1685
     34 C          59.5588   88.6328    7.7955 C.2     1  UNL1        0.2699
     35 O          58.5116   87.6171    7.4467 O.2     1  UNL1       -0.2679
     36 N          59.6926   89.8832    6.9779 N.am    1  UNL1       -0.2969
     37 H          60.3799   90.5498    7.2068 H       1  UNL1        0.1499
     38 C          58.7791   90.1179    5.8115 C.3     1  UNL1        0.1166
     39 C          58.9246   91.3599    4.9829 C.3     1  UNL1        0.1064
     40 C          57.4350   91.5364    4.9857 C.3     1  UNL1        0.0311
     41 C          60.4143   91.1834    4.9802 C.3     1  UNL1        0.0311
     42 O          59.0703   92.6018    4.1544 O.3     1  UNL1       -0.3851
     43 H          58.1935   92.9771    3.9775 H       1  UNL1        0.2103
@<TRIPOS>BOND
     1    29    28    1
     2    29    26    1
     3    26    23    1
     4    23    24    2
     5    23    25    2
     6    23    15    1
     7    15    16   ar
     8    16    17   ar
     9    17    18   ar
    10    18     1    1
    11     1     2   ar
    12     2     3   ar
    13     3    34    1
    14    34    35    2
    15    34    36   am
    16    36    38    1
    17    38    39    1
    18    39    40    1
    19    39    41    1
    20    39    42    1
    21     3     4   ar
    22     4     5   ar
    23     5     6    1
    24     6     7    2
    25     6     8   am
    26     8     9    1
    27     9    10    1
    28    10    11    1
    29    11    12    1
    30    11    13    1
    31    11    14    1
    32    18    19   ar
    33    19    20    1
    34    19    21   ar
    35    21    22    1
    36    29    30    1
    37    30    31    1
    38    30    32    1
    39    30    33    1
    40    21    15   ar
    41     5     1   ar
    42    14     8    1
    43    26    27    1
    44    36    37    1
    45    42    43    1
@<TRIPOS>MOLECULE
*****
 43 45 0 0 0
SMALL
GASTEIGER

@<TRIPOS>ATOM
      1 C          63.4646   89.2103   12.5755 C.ar    1  UNL1        0.0539
      2 S          64.6253   90.1254   12.8312 S.2     1  UNL1       -0.0619
      3 C          64.2691   91.4841   12.3048 C.ar    1  UNL1        0.1641
      4 N          62.8883   91.4088   11.7238 N.ar    1  UNL1       -0.2291
      5 C          62.3911   90.0035   11.8911 C.ar    1  UNL1        0.1414
      6 C          61.0549   89.4828   11.4512 C.2     1  UNL1        0.2674
      7 O          59.8066   89.9363   12.1487 O.2     1  UNL1       -0.2682
      8 N          60.9668   88.5088   10.3140 N.am    1  UNL1       -0.2693
      9 C          62.1222   87.9677    9.5252 C.3     1  UNL1        0.0997
     10 C          61.5774   87.0292    8.4895 C.3     1  UNL1        0.0898
     11 C          60.0854   86.9905    8.6382 C.3     1  UNL1        0.2835
     12 F          60.1538   86.0258    7.4916 F       1  UNL1       -0.2024
     13 F          58.6075   86.7499    8.5472 F       1  UNL1       -0.2024
     14 C          59.7080   87.9048    9.7658 C.3     1  UNL1        0.1603
     15 C          63.2422   84.8510   13.6695 C.ar    1  UNL1        0.1333
     16 C          62.7722   85.3108   12.3213 C.ar    1  UNL1        0.0208
     17 C          62.8464   86.7639   11.9566 C.ar    1  UNL1        0.0028
     18 C          63.3905   87.7572   12.9402 C.ar    1  UNL1        0.0191
     19 C          63.8604   87.2974   14.2883 C.ar    1  UNL1        0.0700
     20 CL         64.4045   88.2906   15.2720 Cl      1  UNL1       -0.0813
     21 C          63.7862   85.8443   14.6530 C.ar    1  UNL1        0.0867
     22 CL         64.2562   85.3844   16.0013 Cl      1  UNL1       -0.0800
     23 S          63.1680   83.3979   14.0342 S.O2    1  UNL1        0.0613
     24 O          61.8520   83.6355   14.7136 O.2     1  UNL1       -0.1530
     25 O          64.4840   83.1602   13.3548 O.2     1  UNL1       -0.1530
     26 N          63.0939   81.9448   14.3988 N.3     1  UNL1       -0.1723
     27 H          64.0301   81.5609   14.2708 H       1  UNL1        0.1491
     28 C          60.8016   80.7306   14.2524 C.3     1  UNL1        0.0278
     29 C          62.1497   81.0357   13.6695 C.3     1  UNL1        0.1701
     30 C          62.5535   80.4317   12.3572 C.3     1  UNL1        0.4118
     31 F          62.9572   79.8276   11.0449 F       1  UNL1       -0.1685
     32 F          62.7579   79.1067   13.0300 F       1  UNL1       -0.1685
     33 F          62.3490   81.7566   11.6844 F       1  UNL1       -0.1685
     34 C          65.1408   92.7040   12.3513 C.2     1  UNL1        0.2699
     35 O          65.7553   93.1377   13.6491 O.2     1  UNL1       -0.2679
     36 N          65.3980   93.4901   11.1000 N.am    1  UNL1       -0.2969
     37 H          64.9947   93.2054   10.2482 H       1  UNL1        0.1499
     38 C          66.2696   94.7099   11.1465 C.3     1  UNL1        0.1166
     39 C          67.0759   95.1018    9.9437 C.3     1  UNL1        0.1064
     40 C          66.7956   96.5479   10.2270 C.3     1  UNL1        0.0311
     41 C          67.3562   93.6557    9.6605 C.3     1  UNL1        0.0311
     42 O          67.8822   95.4937    8.7410 O.3     1  UNL1       -0.3851
     43 H          67.8851   96.4598    8.6545 H       1  UNL1        0.2103
@<TRIPOS>BOND
     1    29    28    1
     2    29    26    1
     3    26    23    1
     4    23    24    2
     5    23    25    2
     6    23    15    1
     7    15    16   ar
     8    16    17   ar
     9    17    18   ar
    10    18     1    1
    11     1     2   ar
    12     2     3   ar
    13     3    34    1
    14    34    35    2
    15    34    36   am
    16    36    38    1
    17    38    39    1
    18    39    40    1
    19    39    41    1
    20    39    42    1
    21     3     4   ar
    22     4     5   ar
    23     5     6    1
    24     6     7    2
    25     6     8   am
    26     8     9    1
    27     9    10    1
    28    10    11    1
    29    11    12    1
    30    11    13    1
    31    11    14    1
    32    18    19   ar
    33    19    20    1
    34    19    21   ar
    35    21    22    1
    36    29    30    1
    37    30    31    1
    38    30    32    1
    39    30    33    1
    40    21    15   ar
    41     5     1   ar
    42    14     8    1
    43    26    27    1
    44    36    37    1
    45    42    43    1
@<TRIPOS>MOLECULE
*****
 43 45 0 0 0
SMALL
GASTEIGER

@<TRIPOS>ATOM
      1 C          63.3891   88.4763   12.5465 C.ar    1  UNL1        0.0539
      2 S          63.9354   87.3939   13.4295 S.2     1  UNL1       -0.0619
      3 C          62.9788   86.2391   13.3933 C.ar    1  UNL1        0.1641
      4 N          61.8412   86.6079   12.4877 N.ar    1  UNL1       -0.2291
      5 C          62.0949   87.9906   11.9644 C.ar    1  UNL1        0.1414
      6 C          61.2096   88.7535   11.0241 C.2     1  UNL1        0.2674
      7 O          60.8349   90.1730   11.3321 O.2     1  UNL1       -0.2682
      8 N          60.6989   88.0971    9.7758 N.am    1  UNL1       -0.2693
      9 C          60.9873   86.6919    9.3374 C.3     1  UNL1        0.0997
     10 C          60.2768   86.4569    8.0373 C.3     1  UNL1        0.0898
     11 C          59.5494   87.7169    7.6723 C.3     1  UNL1        0.2835
     12 F          59.1176   86.9323    6.4690 F       1  UNL1       -0.2024
     13 F          58.7317   88.8129    7.0556 F       1  UNL1       -0.2024
     14 C          59.8103   88.7305    8.7467 C.3     1  UNL1        0.1603
     15 C          65.2980   92.4784   11.7783 C.ar    1  UNL1        0.1333
     16 C          64.6039   91.7523   10.6643 C.ar    1  UNL1        0.0208
     17 C          63.9676   90.4183   10.9204 C.ar    1  UNL1        0.0028
     18 C          64.0254   89.8103   12.2904 C.ar    1  UNL1        0.0191
     19 C          64.7196   90.5364   13.4044 C.ar    1  UNL1        0.0700
     20 CL         64.7774   89.9285   14.7745 Cl      1  UNL1       -0.0813
     21 C          65.3559   91.8704   13.1483 C.ar    1  UNL1        0.0867
     22 CL         66.0500   92.5965   14.2624 Cl      1  UNL1       -0.0800
     23 S          65.9343   93.8124   11.5222 S.O2    1  UNL1        0.0613
     24 O          64.8293   94.1563   10.5680 O.2     1  UNL1       -0.1530
     25 O          67.0393   93.4685   12.4765 O.2     1  UNL1       -0.1530
     26 N          66.5706   95.1464   11.2662 N.3     1  UNL1       -0.1723
     27 H          65.8474   95.8505   11.4127 H       1  UNL1        0.1491
     28 C          67.3775   96.8560    9.4840 C.3     1  UNL1        0.0278
     29 C          67.1938   95.4366    9.9330 C.3     1  UNL1        0.1701
     30 C          67.6333   94.3074    9.0488 C.3     1  UNL1        0.4118
     31 F          68.0728   93.1782    8.1646 F       1  UNL1       -0.1685
     32 F          66.5757   94.6769    8.0513 F       1  UNL1       -0.1685
     33 F          68.6909   93.9379   10.0463 F       1  UNL1       -0.1685
     34 C          63.1326   84.9431   14.1327 C.2     1  UNL1        0.2699
     35 O          64.1105   84.8373   15.2652 O.2     1  UNL1       -0.2679
     36 N          62.3087   83.7530   13.7396 N.am    1  UNL1       -0.2969
     37 H          61.6668   83.8224   12.9963 H       1  UNL1        0.1499
     38 C          62.4625   82.4570   14.4790 C.3     1  UNL1        0.1166
     39 C          62.3929   81.1562   13.7350 C.3     1  UNL1        0.1064
     40 C          63.8459   81.2796   13.3834 C.3     1  UNL1        0.0311
     41 C          60.9399   81.0330   14.0867 C.3     1  UNL1        0.0311
     42 O          62.3232   79.8556   12.9911 O.3     1  UNL1       -0.3851
     43 H          63.1941   79.6503   12.6164 H       1  UNL1        0.2103
@<TRIPOS>BOND
     1    29    28    1
     2    29    26    1
     3    26    23    1
     4    23    24    2
     5    23    25    2
     6    23    15    1
     7    15    16   ar
     8    16    17   ar
     9    17    18   ar
    10    18     1    1
    11     1     2   ar
    12     2     3   ar
    13     3    34    1
    14    34    35    2
    15    34    36   am
    16    36    38    1
    17    38    39    1
    18    39    40    1
    19    39    41    1
    20    39    42    1
    21     3     4   ar
    22     4     5   ar
    23     5     6    1
    24     6     7    2
    25     6     8   am
    26     8     9    1
    27     9    10    1
    28    10    11    1
    29    11    12    1
    30    11    13    1
    31    11    14    1
    32    18    19   ar
    33    19    20    1
    34    19    21   ar
    35    21    22    1
    36    29    30    1
    37    30    31    1
    38    30    32    1
    39    30    33    1
    40    21    15   ar
    41     5     1   ar
    42    14     8    1
    43    26    27    1
    44    36    37    1
    45    42    43    1
@<TRIPOS>MOLECULE
*****
 43 45 0 0 0
SMALL
GASTEIGER

@<TRIPOS>ATOM
      1 C          63.6884   89.3495   13.0986 C.ar    1  UNL1        0.0539
      2 S          64.8682   90.2416   13.3482 S.2     1  UNL1       -0.0619
      3 C          64.5082   91.6247   12.8927 C.ar    1  UNL1        0.1641
      4 N          63.1058   91.5874   12.3617 N.ar    1  UNL1       -0.2291
      5 C          62.5992   90.1813   12.4889 C.ar    1  UNL1        0.1414
      6 C          61.2417   89.6927   12.0785 C.2     1  UNL1        0.2674
      7 O          60.1778   89.4763   13.1137 O.2     1  UNL1       -0.2682
      8 N          60.9479   89.4206   10.6330 N.am    1  UNL1       -0.2693
      9 C          61.9062   89.5899    9.4915 C.3     1  UNL1        0.0997
     10 C          61.1948   89.2053    8.2281 C.3     1  UNL1        0.0898
     11 C          59.7969   88.7983    8.5889 C.3     1  UNL1        0.2835
     12 F          59.6509   88.5702    7.1135 F       1  UNL1       -0.2024
     13 F          58.3684   88.3436    8.6411 F       1  UNL1       -0.2024
     14 C          59.6443   88.9314   10.0751 C.3     1  UNL1        0.1603
     15 C          63.4573   84.9504   14.0177 C.ar    1  UNL1        0.1333
     16 C          63.9322   85.9118   15.0665 C.ar    1  UNL1        0.0208
     17 C          64.0093   87.3782   14.7602 C.ar    1  UNL1        0.0028
     18 C          63.6114   87.8831   13.4050 C.ar    1  UNL1        0.0191
     19 C          63.1364   86.9218   12.3562 C.ar    1  UNL1        0.0700
     20 CL         62.7384   87.4267   11.0009 Cl      1  UNL1       -0.0813
     21 C          63.0593   85.4554   12.6625 C.ar    1  UNL1        0.0867
     22 CL         62.5843   84.4940   11.6136 Cl      1  UNL1       -0.0800
     23 S          63.3802   83.4841   14.3241 S.O2    1  UNL1        0.0613
     24 O          64.6954   83.2710   13.6349 O.2     1  UNL1       -0.1530
     25 O          62.0651   83.6972   15.0132 O.2     1  UNL1       -0.1530
     26 N          63.3032   82.0177   14.6304 N.3     1  UNL1       -0.1723
     27 H          64.2564   81.7049   14.8148 H       1  UNL1        0.1491
     28 C          63.3628   80.9289   12.2722 C.3     1  UNL1        0.0278
     29 C          62.7240   81.0703   13.6220 C.3     1  UNL1        0.1701
     30 C          61.5059   80.2641   13.9634 C.3     1  UNL1        0.4118
     31 F          60.2879   79.4580   14.3048 F       1  UNL1       -0.1685
     32 F          60.7512   81.5275   14.2537 F       1  UNL1       -0.1685
     33 F          62.2607   79.0008   13.6731 F       1  UNL1       -0.1685
     34 C          65.3948   92.8329   12.9571 C.2     1  UNL1        0.2699
     35 O          66.0469   93.2165   14.2523 O.2     1  UNL1       -0.2679
     36 N          65.6293   93.6574   11.7262 N.am    1  UNL1       -0.2969
     37 H          65.2012   93.4056   10.8761 H       1  UNL1        0.1499
     38 C          66.5159   94.8656   11.7905 C.3     1  UNL1        0.1166
     39 C          66.6021   95.7960   10.6169 C.3     1  UNL1        0.1064
     40 C          67.3157   94.7370    9.8299 C.3     1  UNL1        0.0311
     41 C          65.8885   96.8549   11.4040 C.3     1  UNL1        0.0311
     42 O          66.6883   96.7262    9.4434 O.3     1  UNL1       -0.3851
     43 H          67.1419   96.2812    8.7106 H       1  UNL1        0.2103
@<TRIPOS>BOND
     1    29    28    1
     2    29    26    1
     3    26    23    1
     4    23    24    2
     5    23    25    2
     6    23    15    1
     7    15    16   ar
     8    16    17   ar
     9    17    18   ar
    10    18     1    1
    11     1     2   ar
    12     2     3   ar
    13     3    34    1
    14    34    35    2
    15    34    36   am
    16    36    38    1
    17    38    39    1
    18    39    40    1
    19    39    41    1
    20    39    42    1
    21     3     4   ar
    22     4     5   ar
    23     5     6    1
    24     6     7    2
    25     6     8   am
    26     8     9    1
    27     9    10    1
    28    10    11    1
    29    11    12    1
    30    11    13    1
    31    11    14    1
    32    18    19   ar
    33    19    20    1
    34    19    21   ar
    35    21    22    1
    36    29    30    1
    37    30    31    1
    38    30    32    1
    39    30    33    1
    40    21    15   ar
    41     5     1   ar
    42    14     8    1
    43    26    27    1
    44    36    37    1
    45    42    43    1
