@<TRIPOS>MOLECULE
*****
 30 33 0 0 0
SMALL
GASTEIGER

@<TRIPOS>ATOM
      1 C          63.6449   90.4645   15.7832 C.2     1  UNL1        0.2440
      2 O          62.9675   91.2250   16.8844 O.2     1  UNL1       -0.2731
      3 N          63.7066   88.9666   15.8341 N.am    1  UNL1       -0.2781
      4 C          63.0909   88.2294   16.9861 C.3     1  UNL1        0.0951
      5 C          63.1526   86.7314   17.0370 C.3     1  UNL1        0.0410
      6 C          63.8300   85.9708   15.9358 C.3     1  UNL1        0.0722
      7 C          64.4457   86.7082   14.7837 C.3     1  UNL1        0.0410
      8 C          64.3840   88.2061   14.7328 C.3     1  UNL1        0.0951
      9 N          63.4627   91.4463   13.3847 N.3     1  UNL1       -0.3116
     10 C          64.2606   91.2017   14.6311 C.3     1  UNL1        0.1514
     11 H          62.5307   91.0464   13.4937 H       1  UNL1        0.1195
     12 H          63.9298   91.0084   12.5906 H       1  UNL1        0.1195
     13 C          65.6742   91.6945   14.7254 C.ar    1  UNL1        0.0013
     14 C          66.1260   92.4492   15.9404 C.ar    1  UNL1       -0.0025
     15 C          67.5396   92.9419   16.0346 C.ar    1  UNL1        0.0006
     16 C          68.5015   92.6800   14.9139 C.ar    1  UNL1        0.0114
     17 C          68.0498   91.9253   13.6988 C.ar    1  UNL1        0.0574
     18 CL         69.0117   91.6634   12.5780 Cl      1  UNL1       -0.0823
     19 C          66.6361   91.4326   13.6046 C.ar    1  UNL1        0.0089
     20 N          63.8917   84.4730   15.9867 N.pl3   1  UNL1       -0.3369
     21 H          64.1324   84.0184   16.8262 H       1  UNL1        0.1465
     22 C          63.5866   83.6677   14.7585 C.2     1  UNL1        0.0262
     23 C          62.4753   82.6605   14.7789 C.2     1  UNL1        0.0118
     24 C          62.1703   81.8551   13.5506 C.2     1  UNL1        0.0216
     25 C          62.9766   82.0572   12.3020 C.2     1  UNL1        0.1008
     26 N          62.9084   81.4146   10.9483 N.2     1  UNL1       -0.1482
     27 N          63.9775   82.0248   10.0913 N.2     1  UNL1       -0.1467
     28 C          64.7065   83.0444   10.9153 C.2     1  UNL1        0.1198
     29 C          64.0879   83.0644   12.2816 C.2     1  UNL1        0.0238
     30 C          64.3929   83.8697   13.5098 C.3     1  UNL1        0.0703
@<TRIPOS>BOND
     1     9    10    1
     2    10     1    1
     3     1     2    2
     4     1     3   am
     5     3     4    1
     6     4     5    1
     7     5     6    1
     8     6    20    1
     9    20    22    1
    10    22    23    2
    11    23    24    1
    12    24    25    2
    13    25    26    1
    14    26    27    2
    15    27    28    1
    16    28    29    2
    17    29    30    1
    18     6     7    1
    19     7     8    1
    20    10    13    1
    21    13    14   ar
    22    14    15   ar
    23    15    16   ar
    24    16    17   ar
    25    17    18    1
    26    17    19   ar
    27     8     3    1
    28    19    13   ar
    29    30    22    1
    30    29    25    1
    31     9    11    1
    32     9    12    1
    33    20    21    1
@<TRIPOS>MOLECULE
*****
 30 33 0 0 0
SMALL
GASTEIGER

@<TRIPOS>ATOM
      1 C          63.6996   85.0573   15.7739 C.2     1  UNL1        0.2440
      2 O          62.9331   84.3450   16.8487 O.2     1  UNL1       -0.2731
      3 N          63.7175   86.5566   15.7336 N.am    1  UNL1       -0.2781
      4 C          62.9691   87.3437   16.7681 C.3     1  UNL1        0.0951
      5 C          62.9870   88.8431   16.7278 C.3     1  UNL1        0.0410
      6 C          63.7535   89.5554   15.6530 C.3     1  UNL1        0.0722
      7 C          64.5020   88.7682   14.6185 C.3     1  UNL1        0.0410
      8 C          64.4840   87.2689   14.6587 C.3     1  UNL1        0.0951
      9 N          65.9236   84.4750   14.5636 N.3     1  UNL1       -0.3116
     10 C          64.4481   84.2702   14.7393 C.3     1  UNL1        0.1514
     11 H          66.2501   85.1800   15.2245 H       1  UNL1        0.1195
     12 H          66.1123   84.7885   13.6114 H       1  UNL1        0.1195
     13 C          63.7210   83.2783   13.8805 C.ar    1  UNL1        0.0013
     14 C          64.1508   83.0586   12.4603 C.ar    1  UNL1       -0.0025
     15 C          63.4238   82.0667   11.6015 C.ar    1  UNL1        0.0006
     16 C          62.2669   81.2945   12.1629 C.ar    1  UNL1        0.0114
     17 C          61.8370   81.5141   13.5832 C.ar    1  UNL1        0.0574
     18 CL         60.6801   80.7418   14.1446 Cl      1  UNL1       -0.0823
     19 C          62.5641   82.5061   14.4419 C.ar    1  UNL1        0.0089
     20 N          63.7714   91.0547   15.6127 N.pl3   1  UNL1       -0.3369
     21 H          63.2048   91.5706   16.2308 H       1  UNL1        0.1465
     22 C          64.6528   91.7681   14.6307 C.2     1  UNL1        0.0262
     23 C          65.8371   92.5502   15.1161 C.2     1  UNL1        0.0118
     24 C          66.7185   93.2635   14.1341 C.2     1  UNL1        0.0216
     25 C          66.4155   93.1947   12.6666 C.2     1  UNL1        0.1008
     26 N          67.0991   93.7903   11.4716 N.2     1  UNL1       -0.1482
     27 N          66.3372   93.3762   10.2477 N.2     1  UNL1       -0.1467
     28 C          65.1828   92.5247   10.6862 C.2     1  UNL1        0.1198
     29 C          65.2312   92.4126   12.1812 C.2     1  UNL1        0.0238
     30 C          64.3498   91.6992   13.1633 C.3     1  UNL1        0.0703
@<TRIPOS>BOND
     1     9    10    1
     2    10     1    1
     3     1     2    2
     4     1     3   am
     5     3     4    1
     6     4     5    1
     7     5     6    1
     8     6    20    1
     9    20    22    1
    10    22    23    2
    11    23    24    1
    12    24    25    2
    13    25    26    1
    14    26    27    2
    15    27    28    1
    16    28    29    2
    17    29    30    1
    18     6     7    1
    19     7     8    1
    20    10    13    1
    21    13    14   ar
    22    14    15   ar
    23    15    16   ar
    24    16    17   ar
    25    17    18    1
    26    17    19   ar
    27     8     3    1
    28    19    13   ar
    29    30    22    1
    30    29    25    1
    31     9    11    1
    32     9    12    1
    33    20    21    1
@<TRIPOS>MOLECULE
*****
 30 33 0 0 0
SMALL
GASTEIGER

@<TRIPOS>ATOM
      1 C          66.0529   91.9343   13.4048 C.2     1  UNL1        0.2440
      2 O          66.9879   91.4086   14.4532 O.2     1  UNL1       -0.2731
      3 N          64.8148   91.1652   13.0504 N.am    1  UNL1       -0.2781
      4 C          64.5118   89.8705   13.7444 C.3     1  UNL1        0.0951
      5 C          63.2736   89.1013   13.3899 C.3     1  UNL1        0.0410
      6 C          62.3386   89.6270   12.3415 C.3     1  UNL1        0.0722
      7 C          62.6417   90.9218   11.6474 C.3     1  UNL1        0.0410
      8 C          63.8797   91.6909   12.0018 C.3     1  UNL1        0.0951
      9 N          66.0365   94.5322   13.3814 N.3     1  UNL1       -0.3116
     10 C          66.3559   93.2291   12.7107 C.3     1  UNL1        0.1514
     11 H          65.6215   94.3514   14.2954 H       1  UNL1        0.1195
     12 H          65.3776   95.0578   12.8068 H       1  UNL1        0.1195
     13 C          66.9783   93.2207   11.3460 C.ar    1  UNL1        0.0013
     14 C          67.7895   92.0409   10.8987 C.ar    1  UNL1       -0.0025
     15 C          68.4119   92.0327    9.5340 C.ar    1  UNL1        0.0006
     16 C          68.2231   93.2042    8.6164 C.ar    1  UNL1        0.0114
     17 C          67.4119   94.3840    9.0636 C.ar    1  UNL1        0.0574
     18 CL         67.2231   95.5555    8.1460 Cl      1  UNL1       -0.0823
     19 C          66.7895   94.3922   10.4284 C.ar    1  UNL1        0.0089
     20 N          61.1005   88.8579   11.9871 N.pl3   1  UNL1       -0.3369
     21 H          60.3102   88.9001   12.5727 H       1  UNL1        0.1465
     22 C          61.0665   88.0245   10.7403 C.2     1  UNL1        0.0262
     23 C          59.8844   88.0993    9.8201 C.2     1  UNL1        0.0118
     24 C          59.8505   87.2659    8.5733 C.2     1  UNL1        0.0216
     25 C          60.9987   86.3576    8.2469 C.2     1  UNL1        0.1008
     26 N          61.2452   85.4244    7.0987 N.2     1  UNL1       -0.1482
     27 N          62.5798   84.7728    7.3094 N.2     1  UNL1       -0.1467
     28 C          63.1580   85.3033    8.5877 C.2     1  UNL1        0.1198
     29 C          62.1809   86.2828    9.1672 C.2     1  UNL1        0.0238
     30 C          62.2148   87.1162   10.4139 C.3     1  UNL1        0.0703
@<TRIPOS>BOND
     1     9    10    1
     2    10     1    1
     3     1     2    2
     4     1     3   am
     5     3     4    1
     6     4     5    1
     7     5     6    1
     8     6    20    1
     9    20    22    1
    10    22    23    2
    11    23    24    1
    12    24    25    2
    13    25    26    1
    14    26    27    2
    15    27    28    1
    16    28    29    2
    17    29    30    1
    18     6     7    1
    19     7     8    1
    20    10    13    1
    21    13    14   ar
    22    14    15   ar
    23    15    16   ar
    24    16    17   ar
    25    17    18    1
    26    17    19   ar
    27     8     3    1
    28    19    13   ar
    29    30    22    1
    30    29    25    1
    31     9    11    1
    32     9    12    1
    33    20    21    1
@<TRIPOS>MOLECULE
*****
 30 33 0 0 0
SMALL
GASTEIGER

@<TRIPOS>ATOM
      1 C          65.9817   92.1156   13.7406 C.2     1  UNL1        0.2440
      2 O          66.6640   91.8315   15.0459 O.2     1  UNL1       -0.2731
      3 N          64.9588   91.1582   13.2050 N.am    1  UNL1       -0.2781
      4 C          64.6181   89.9167   13.9746 C.3     1  UNL1        0.0951
      5 C          63.5951   88.9592   13.4390 C.3     1  UNL1        0.0410
      6 C          62.9129   89.2433   12.1337 C.3     1  UNL1        0.0722
      7 C          63.2536   90.4849   11.3640 C.3     1  UNL1        0.0410
      8 C          64.2766   91.4424   11.8996 C.3     1  UNL1        0.0951
      9 N          66.0492   94.7069   13.5654 N.3     1  UNL1       -0.3116
     10 C          66.3224   93.3572   12.9708 C.3     1  UNL1        0.1514
     11 H          65.6339   94.5934   14.4901 H       1  UNL1        0.1195
     12 H          65.4044   95.2193   12.9637 H       1  UNL1        0.1195
     13 C          66.9364   93.2490   11.6065 C.ar    1  UNL1        0.0013
     14 C          67.8144   92.0804   11.2696 C.ar    1  UNL1       -0.0025
     15 C          68.4282   91.9723    9.9052 C.ar    1  UNL1        0.0006
     16 C          68.1642   93.0328    8.8778 C.ar    1  UNL1        0.0114
     17 C          67.2862   94.2014    9.2147 C.ar    1  UNL1        0.0574
     18 CL         67.0222   95.2619    8.1872 Cl      1  UNL1       -0.0823
     19 C          66.6723   94.3095   10.5791 C.ar    1  UNL1        0.0089
     20 N          61.8899   88.2859   11.5981 N.pl3   1  UNL1       -0.3369
     21 H          60.9419   88.5488   11.5601 H       1  UNL1        0.1465
     22 C          62.3114   86.9278   11.1204 C.2     1  UNL1        0.0262
     23 C          62.4064   86.6460    9.6503 C.2     1  UNL1        0.0118
     24 C          62.8280   85.2879    9.1726 C.2     1  UNL1        0.0216
     25 C          63.1544   84.2118   10.1652 C.2     1  UNL1        0.1008
     26 N          63.5945   82.7881    9.9937 N.2     1  UNL1       -0.1482
     27 N          63.7715   82.1901   11.3579 N.2     1  UNL1       -0.1467
     28 C          63.4408   83.2442   12.3726 C.2     1  UNL1        0.1198
     29 C          63.0594   84.4937   11.6355 C.2     1  UNL1        0.0238
     30 C          62.6379   85.8517   12.1130 C.3     1  UNL1        0.0703
@<TRIPOS>BOND
     1     9    10    1
     2    10     1    1
     3     1     2    2
     4     1     3   am
     5     3     4    1
     6     4     5    1
     7     5     6    1
     8     6    20    1
     9    20    22    1
    10    22    23    2
    11    23    24    1
    12    24    25    2
    13    25    26    1
    14    26    27    2
    15    27    28    1
    16    28    29    2
    17    29    30    1
    18     6     7    1
    19     7     8    1
    20    10    13    1
    21    13    14   ar
    22    14    15   ar
    23    15    16   ar
    24    16    17   ar
    25    17    18    1
    26    17    19   ar
    27     8     3    1
    28    19    13   ar
    29    30    22    1
    30    29    25    1
    31     9    11    1
    32     9    12    1
    33    20    21    1
@<TRIPOS>MOLECULE
*****
 30 33 0 0 0
SMALL
GASTEIGER

@<TRIPOS>ATOM
      1 C          60.7954   89.2683   11.4746 C.2     1  UNL1        0.2440
      2 O          60.1046   88.5590   12.6013 O.2     1  UNL1       -0.2731
      3 N          62.0605   90.0317   11.7324 N.am    1  UNL1       -0.2781
      4 C          62.6349   90.0858   13.1169 C.3     1  UNL1        0.0951
      5 C          63.9002   90.8493   13.3747 C.3     1  UNL1        0.0410
      6 C          64.5910   91.5586   12.2480 C.3     1  UNL1        0.0722
      7 C          64.0165   91.5045   10.8633 C.3     1  UNL1        0.0410
      8 C          62.7513   90.7411   10.6055 C.3     1  UNL1        0.0951
      9 N          59.4567   90.3859    9.5487 N.3     1  UNL1       -0.3116
     10 C          60.2210   89.2142   10.0899 C.3     1  UNL1        0.1514
     11 H          59.4258   91.1253   10.2507 H       1  UNL1        0.1195
     12 H          58.5063   90.0952    9.3190 H       1  UNL1        0.1195
     13 C          60.4108   87.9884    9.2465 C.ar    1  UNL1        0.0013
     14 C          59.3440   87.5718    8.2778 C.ar    1  UNL1       -0.0025
     15 C          59.5340   86.3460    7.4345 C.ar    1  UNL1        0.0006
     16 C          60.7907   85.5368    7.5598 C.ar    1  UNL1        0.0114
     17 C          61.8576   85.9533    8.5284 C.ar    1  UNL1        0.0574
     18 CL         63.1143   85.1441    8.6537 Cl      1  UNL1       -0.0823
     19 C          61.6676   87.1792    9.3718 C.ar    1  UNL1        0.0089
     20 N          65.8561   92.3220   12.5058 N.pl3   1  UNL1       -0.3369
     21 H          66.2553   92.3239   13.4058 H       1  UNL1        0.1465
     22 C          66.5132   93.0827   11.3923 C.2     1  UNL1        0.0262
     23 C          67.5944   92.4362   10.5783 C.2     1  UNL1        0.0118
     24 C          68.2515   93.1969    9.4648 C.2     1  UNL1        0.0216
     25 C          67.8272   94.6041    9.1655 C.2     1  UNL1        0.1008
     26 N          68.2891   95.5947    8.1382 N.2     1  UNL1       -0.1482
     27 N          67.4933   96.8535    8.3174 N.2     1  UNL1       -0.1467
     28 C          66.5395   96.6409    9.4554 C.2     1  UNL1        0.1198
     29 C          66.7459   95.2507    9.9796 C.2     1  UNL1        0.0238
     30 C          66.0889   94.4900   11.0930 C.3     1  UNL1        0.0703
@<TRIPOS>BOND
     1     9    10    1
     2    10     1    1
     3     1     2    2
     4     1     3   am
     5     3     4    1
     6     4     5    1
     7     5     6    1
     8     6    20    1
     9    20    22    1
    10    22    23    2
    11    23    24    1
    12    24    25    2
    13    25    26    1
    14    26    27    2
    15    27    28    1
    16    28    29    2
    17    29    30    1
    18     6     7    1
    19     7     8    1
    20    10    13    1
    21    13    14   ar
    22    14    15   ar
    23    15    16   ar
    24    16    17   ar
    25    17    18    1
    26    17    19   ar
    27     8     3    1
    28    19    13   ar
    29    30    22    1
    30    29    25    1
    31     9    11    1
    32     9    12    1
    33    20    21    1
@<TRIPOS>MOLECULE
*****
 30 33 0 0 0
SMALL
GASTEIGER

@<TRIPOS>ATOM
      1 C          64.5825   92.0139   11.5910 C.2     1  UNL1        0.2440
      2 O          63.7388   91.9534   10.3523 O.2     1  UNL1       -0.2731
      3 N          64.3836   91.0059   12.6839 N.am    1  UNL1       -0.2781
      4 C          63.3411   89.9374   12.5381 C.3     1  UNL1        0.0951
      5 C          63.1422   88.9294   13.6310 C.3     1  UNL1        0.0410
      6 C          63.9859   88.9899   14.8698 C.3     1  UNL1        0.0722
      7 C          65.0285   90.0585   15.0155 C.3     1  UNL1        0.0410
      8 C          65.2274   91.0665   13.9227 C.3     1  UNL1        0.0951
      9 N          65.7466   93.8408   13.0253 N.3     1  UNL1       -0.3116
     10 C          65.6252   93.0824   11.7369 C.3     1  UNL1        0.1514
     11 H          65.0473   93.5025   13.6863 H       1  UNL1        0.1195
     12 H          65.5965   94.8344   12.8504 H       1  UNL1        0.1195
     13 C          66.5463   93.3924   10.5944 C.ar    1  UNL1        0.0013
     14 C          67.5065   92.3509   10.1011 C.ar    1  UNL1       -0.0025
     15 C          68.4276   92.6610    8.9586 C.ar    1  UNL1        0.0006
     16 C          68.3885   94.0126    8.3093 C.ar    1  UNL1        0.0114
     17 C          67.4284   95.0542    8.8025 C.ar    1  UNL1        0.0574
     18 CL         67.3893   96.4058    8.1532 Cl      1  UNL1       -0.0823
     19 C          66.5072   94.7440    9.9451 C.ar    1  UNL1        0.0089
     20 N          63.7870   87.9819   15.9626 N.pl3   1  UNL1       -0.3369
     21 H          63.7718   88.2722   16.9032 H       1  UNL1        0.1465
     22 C          63.6113   86.5316   15.6223 C.2     1  UNL1        0.0262
     23 C          62.7590   85.6552   16.4914 C.2     1  UNL1        0.0118
     24 C          62.5833   84.2049   16.1510 C.2     1  UNL1        0.0216
     25 C          63.2599   83.6311   14.9415 C.2     1  UNL1        0.1008
     26 N          63.2716   82.2488   14.3591 N.2     1  UNL1       -0.1482
     27 N          64.1311   82.2710   13.1300 N.2     1  UNL1       -0.1467
     28 C          64.6507   83.6670   12.9528 C.2     1  UNL1        0.1198
     29 C          64.1122   84.5075   14.0724 C.2     1  UNL1        0.0238
     30 C          64.2879   85.9578   14.4128 C.3     1  UNL1        0.0703
@<TRIPOS>BOND
     1     9    10    1
     2    10     1    1
     3     1     2    2
     4     1     3   am
     5     3     4    1
     6     4     5    1
     7     5     6    1
     8     6    20    1
     9    20    22    1
    10    22    23    2
    11    23    24    1
    12    24    25    2
    13    25    26    1
    14    26    27    2
    15    27    28    1
    16    28    29    2
    17    29    30    1
    18     6     7    1
    19     7     8    1
    20    10    13    1
    21    13    14   ar
    22    14    15   ar
    23    15    16   ar
    24    16    17   ar
    25    17    18    1
    26    17    19   ar
    27     8     3    1
    28    19    13   ar
    29    30    22    1
    30    29    25    1
    31     9    11    1
    32     9    12    1
    33    20    21    1
@<TRIPOS>MOLECULE
*****
 30 33 0 0 0
SMALL
GASTEIGER

@<TRIPOS>ATOM
      1 C          63.9487   91.3739   12.7519 C.2     1  UNL1        0.2440
      2 O          63.9989   92.5993   11.8884 O.2     1  UNL1       -0.2731
      3 N          63.4790   90.0703   12.1774 N.am    1  UNL1       -0.2781
      4 C          63.0593   89.9922   10.7396 C.3     1  UNL1        0.0951
      5 C          62.5895   88.6885   10.1651 C.3     1  UNL1        0.0410
      6 C          62.5394   87.4631   11.0286 C.3     1  UNL1        0.0722
      7 C          62.9591   87.5412   12.4666 C.3     1  UNL1        0.0410
      8 C          63.4289   88.8448   13.0411 C.3     1  UNL1        0.0951
      9 N          63.3807   91.1478   15.2770 N.3     1  UNL1       -0.3116
     10 C          64.3684   91.4519   14.1899 C.3     1  UNL1        0.1514
     11 H          62.4805   90.9086   14.8613 H       1  UNL1        0.1195
     12 H          63.2718   91.9662   15.8761 H       1  UNL1        0.1195
     13 C          65.7758   91.8341   14.5407 C.ar    1  UNL1        0.0013
     14 C          66.0707   92.4784   15.8629 C.ar    1  UNL1       -0.0025
     15 C          67.4782   92.8606   16.2136 C.ar    1  UNL1        0.0006
     16 C          68.5908   92.5984   15.2423 C.ar    1  UNL1        0.0114
     17 C          68.2960   91.9541   13.9202 C.ar    1  UNL1        0.0574
     18 CL         69.4086   91.6920   12.9490 Cl      1  UNL1       -0.0823
     19 C          66.8884   91.5720   13.5695 C.ar    1  UNL1        0.0089
     20 N          62.0696   86.1595   10.4541 N.pl3   1  UNL1       -0.3369
     21 H          61.4109   86.1529    9.7225 H       1  UNL1        0.1465
     22 C          62.6035   84.8660   10.9945 C.2     1  UNL1        0.0262
     23 C          63.4559   83.9864   10.1288 C.2     1  UNL1        0.0118
     24 C          63.9898   82.6929   10.6692 C.2     1  UNL1        0.0216
     25 C          63.6711   82.2792   12.0753 C.2     1  UNL1        0.1008
     26 N          64.0527   81.0699   12.8766 N.2     1  UNL1       -0.1482
     27 N          63.4361   81.2022   14.2376 N.2     1  UNL1       -0.1467
     28 C          62.6734   82.4932   14.2774 C.2     1  UNL1        0.1198
     29 C          62.8187   83.1588   12.9411 C.2     1  UNL1        0.0238
     30 C          62.2849   84.4523   12.4007 C.3     1  UNL1        0.0703
@<TRIPOS>BOND
     1     9    10    1
     2    10     1    1
     3     1     2    2
     4     1     3   am
     5     3     4    1
     6     4     5    1
     7     5     6    1
     8     6    20    1
     9    20    22    1
    10    22    23    2
    11    23    24    1
    12    24    25    2
    13    25    26    1
    14    26    27    2
    15    27    28    1
    16    28    29    2
    17    29    30    1
    18     6     7    1
    19     7     8    1
    20    10    13    1
    21    13    14   ar
    22    14    15   ar
    23    15    16   ar
    24    16    17   ar
    25    17    18    1
    26    17    19   ar
    27     8     3    1
    28    19    13   ar
    29    30    22    1
    30    29    25    1
    31     9    11    1
    32     9    12    1
    33    20    21    1
@<TRIPOS>MOLECULE
*****
 30 33 0 0 0
SMALL
GASTEIGER

@<TRIPOS>ATOM
      1 C          62.3515   86.6056   10.7940 C.2     1  UNL1        0.2440
      2 O          62.9362   87.4423   11.8931 O.2     1  UNL1       -0.2731
      3 N          61.3744   87.2104    9.8299 N.am    1  UNL1       -0.2781
      4 C          60.9822   88.6518    9.9648 C.3     1  UNL1        0.0951
      5 C          60.0051   89.2567    9.0006 C.3     1  UNL1        0.0410
      6 C          59.4203   88.4200    7.9015 C.3     1  UNL1        0.0722
      7 C          59.8126   86.9785    7.7666 C.3     1  UNL1        0.0410
      8 C          60.7897   86.3737    8.7307 C.3     1  UNL1        0.0951
      9 N          63.2376   84.6413    9.3427 N.3     1  UNL1       -0.3116
     10 C          62.7437   85.1641   10.6590 C.3     1  UNL1        0.1514
     11 H          63.2420   85.3964    8.6570 H       1  UNL1        0.1195
     12 H          62.6225   83.8938    9.0213 H       1  UNL1        0.1195
     13 C          62.6421   84.2454   11.8404 C.ar    1  UNL1        0.0013
     14 C          62.4920   84.8125   13.2209 C.ar    1  UNL1       -0.0025
     15 C          62.3904   83.8937   14.4022 C.ar    1  UNL1        0.0006
     16 C          62.4388   82.4078   14.2031 C.ar    1  UNL1        0.0114
     17 C          62.5889   81.8406   12.8226 C.ar    1  UNL1        0.0574
     18 CL         62.6374   80.3547   12.6234 Cl      1  UNL1       -0.0823
     19 C          62.6906   82.7595   11.6412 C.ar    1  UNL1        0.0089
     20 N          58.4433   89.0249    6.9374 N.pl3   1  UNL1       -0.3369
     21 H          57.4989   88.7472    6.9544 H       1  UNL1        0.1465
     22 C          58.9052   90.0528    5.9473 C.2     1  UNL1        0.0262
     23 C          57.9402   91.0725    5.4194 C.2     1  UNL1        0.0118
     24 C          58.4021   92.1004    4.4294 C.2     1  UNL1        0.0216
     25 C          59.8292   92.1085    3.9673 C.2     1  UNL1        0.1008
     26 N          60.5681   92.9924    3.0069 N.2     1  UNL1       -0.1482
     27 N          61.9899   92.5189    2.9412 N.2     1  UNL1       -0.1467
     28 C          62.1297   91.3424    3.8611 C.2     1  UNL1        0.1198
     29 C          60.7942   91.0887    4.4953 C.2     1  UNL1        0.0238
     30 C          60.3322   90.0608    5.4853 C.3     1  UNL1        0.0703
@<TRIPOS>BOND
     1     9    10    1
     2    10     1    1
     3     1     2    2
     4     1     3   am
     5     3     4    1
     6     4     5    1
     7     5     6    1
     8     6    20    1
     9    20    22    1
    10    22    23    2
    11    23    24    1
    12    24    25    2
    13    25    26    1
    14    26    27    2
    15    27    28    1
    16    28    29    2
    17    29    30    1
    18     6     7    1
    19     7     8    1
    20    10    13    1
    21    13    14   ar
    22    14    15   ar
    23    15    16   ar
    24    16    17   ar
    25    17    18    1
    26    17    19   ar
    27     8     3    1
    28    19    13   ar
    29    30    22    1
    30    29    25    1
    31     9    11    1
    32     9    12    1
    33    20    21    1
@<TRIPOS>MOLECULE
*****
 30 33 0 0 0
SMALL
GASTEIGER

@<TRIPOS>ATOM
      1 C          60.5998   89.2126    9.5977 C.2     1  UNL1        0.2440
      2 O          59.7920   89.6197    8.4012 O.2     1  UNL1       -0.2731
      3 N          61.3001   87.8862    9.6138 N.am    1  UNL1       -0.2781
      4 C          61.1925   86.9669    8.4335 C.3     1  UNL1        0.0951
      5 C          61.8927   85.6404    8.4497 C.3     1  UNL1        0.0410
      6 C          62.7006   85.2334    9.6461 C.3     1  UNL1        0.0722
      7 C          62.8082   86.1528   10.8265 C.3     1  UNL1        0.0410
      8 C          62.1080   87.4792   10.8104 C.3     1  UNL1        0.0951
      9 N          59.4723   90.5451   11.5220 N.3     1  UNL1       -0.3116
     10 C          60.7075   90.1320   10.7780 C.3     1  UNL1        0.1514
     11 H          58.6554   90.1111   11.0922 H       1  UNL1        0.1195
     12 H          59.3768   91.5600   11.4855 H       1  UNL1        0.1195
     13 C          62.0504   90.6381   11.2144 C.ar    1  UNL1        0.0013
     14 C          62.9599   91.3023   10.2236 C.ar    1  UNL1       -0.0025
     15 C          64.3027   91.8084   10.6601 C.ar    1  UNL1        0.0006
     16 C          64.7362   91.6505   12.0873 C.ar    1  UNL1        0.0114
     17 C          63.8267   90.9864   13.0783 C.ar    1  UNL1        0.0574
     18 CL         64.2601   90.8285   14.5055 Cl      1  UNL1       -0.0823
     19 C          62.4838   90.4802   12.6417 C.ar    1  UNL1        0.0089
     20 N          63.4009   83.9069    9.6623 N.pl3   1  UNL1       -0.3369
     21 H          63.7755   83.5379    8.8300 H       1  UNL1        0.1465
     22 C          63.5303   83.1428   10.9466 C.2     1  UNL1        0.0262
     23 C          64.4018   83.6692   12.0480 C.2     1  UNL1        0.0118
     24 C          64.5312   82.9050   13.3323 C.2     1  UNL1        0.0216
     25 C          63.7890   81.6144   13.5151 C.2     1  UNL1        0.1008
     26 N          63.7219   80.6488   14.6610 N.2     1  UNL1       -0.1482
     27 N          62.8088   79.5256   14.2677 N.2     1  UNL1       -0.1467
     28 C          62.3116   79.7970   12.8788 C.2     1  UNL1        0.1198
     29 C          62.9174   81.0880   12.4136 C.2     1  UNL1        0.0238
     30 C          62.7881   81.8521   11.1293 C.3     1  UNL1        0.0703
@<TRIPOS>BOND
     1     9    10    1
     2    10     1    1
     3     1     2    2
     4     1     3   am
     5     3     4    1
     6     4     5    1
     7     5     6    1
     8     6    20    1
     9    20    22    1
    10    22    23    2
    11    23    24    1
    12    24    25    2
    13    25    26    1
    14    26    27    2
    15    27    28    1
    16    28    29    2
    17    29    30    1
    18     6     7    1
    19     7     8    1
    20    10    13    1
    21    13    14   ar
    22    14    15   ar
    23    15    16   ar
    24    16    17   ar
    25    17    18    1
    26    17    19   ar
    27     8     3    1
    28    19    13   ar
    29    30    22    1
    30    29    25    1
    31     9    11    1
    32     9    12    1
    33    20    21    1
