@<TRIPOS>MOLECULE
*****
 36 40 0 0 0
SMALL
GASTEIGER

@<TRIPOS>ATOM
      1 N          63.1447   90.3160   10.8007 N.pl3   1  UNL1       -0.2740
      2 C          63.7611   91.4417   10.0242 C.3     1  UNL1        0.1079
      3 C          64.5599   92.2797   10.9779 C.3     1  UNL1        0.1498
      4 C          65.3832   93.5177   10.7790 C.2     1  UNL1        0.2919
      5 O          65.5060   94.1255    9.4132 O.2     1  UNL1       -0.2563
      6 N          66.0839   94.1479   11.9462 N.am    1  UNL1       -0.1449
      7 C          66.9072   95.3860   11.7473 C.3     1  UNL1        0.2159
      8 C          65.9612   93.5402   13.3119 C.2     1  UNL1        0.3728
      9 N          66.6618   94.1704   14.4790 N.2     1  UNL1       -0.1329
     10 N          65.1379   92.3022   13.5108 N.pl3   1  UNL1       -0.2247
     11 C          64.4373   91.6720   12.3438 C.3     1  UNL1        0.1559
     12 C          63.5626   90.4583   12.2342 C.3     1  UNL1        0.1327
     13 H          67.2022   94.9829   14.3486 H       1  UNL1        0.3058
     14 H          65.0574   91.9033   14.4073 H       1  UNL1        0.2454
     15 C          61.6607   85.3381   10.6667 C.3     1  UNL1        0.0546
     16 C          61.5228   86.7484   10.1747 C.ar    1  UNL1        0.0907
     17 N          62.4026   87.8271   10.7336 N.ar    1  UNL1       -0.2157
     18 C          62.2649   89.2374   10.2417 C.ar    1  UNL1        0.2198
     19 N          61.2472   89.5691    9.1908 N.ar    1  UNL1       -0.2157
     20 C          60.3674   88.4903    8.6319 C.ar    1  UNL1        0.0907
     21 C          59.3498   88.8220    7.5810 C.3     1  UNL1        0.0546
     22 C          60.5052   87.0800    9.1238 C.ar    1  UNL1        0.1671
     23 F          59.6254   86.0014    8.5649 F       1  UNL1       -0.2017
     24 C          64.2233   90.9548   13.6437 C.ar    1  UNL1        0.0397
     25 C          63.9660   89.4863   13.8085 C.ar    1  UNL1        0.0057
     26 C          63.8127   89.2040   15.2738 C.ar    1  UNL1        0.0068
     27 C          63.9753   90.4982   16.0145 C.ar    1  UNL1        0.0352
     28 S          64.2290   91.5802   15.0071 S.2     1  UNL1       -0.0878
     29 C          63.5440   87.8631   15.8900 C.ar    1  UNL1        0.0012
     30 C          62.9520   87.7749   17.2655 C.ar    1  UNL1        0.0001
     31 C          62.6833   86.4340   17.8817 C.ar    1  UNL1        0.0007
     32 C          63.0066   85.1814   17.1225 C.ar    1  UNL1        0.0103
     33 C          63.5987   85.2696   15.7472 C.ar    1  UNL1        0.0684
     34 C          63.8674   86.6105   15.1308 C.ar    1  UNL1        0.0103
     35 C          63.9220   84.0169   14.9880 C.1     1  UNL1        0.1004
     36 N          64.2452   82.7642   14.2289 N.1     1  UNL1       -0.1908
@<TRIPOS>BOND
     1    15    16    1
     2    16    17   ar
     3    17    18   ar
     4    18     1    1
     5     1     2    1
     6     3     2    1
     7     3     4    1
     8     4     5    2
     9     4     6   am
    10     6     7    1
    11     6     8    1
    12     8     9    2
    13     8    10    1
    14    10    11    1
    15    11    24    1
    16    24    25   ar
    17    25    26   ar
    18    26    29    1
    19    29    30   ar
    20    30    31   ar
    21    31    32   ar
    22    32    33   ar
    23    33    35    1
    24    35    36    3
    25    33    34   ar
    26    26    27   ar
    27    27    28   ar
    28    11    12    1
    29    18    19   ar
    30    19    20   ar
    31    20    21    1
    32    20    22   ar
    33    22    23    1
    34    22    16   ar
    35    12     1    1
    36    11     3    1
    37    28    24   ar
    38    34    29   ar
    39     9    13    1
    40    10    14    1
@<TRIPOS>MOLECULE
*****
 36 40 0 0 0
SMALL
GASTEIGER

@<TRIPOS>ATOM
      1 N          62.7774   89.8365   10.6857 N.pl3   1  UNL1       -0.2740
      2 C          63.3635   91.1843   10.3858 C.3     1  UNL1        0.1079
      3 C          64.2092   91.5926   11.5555 C.3     1  UNL1        0.1498
      4 C          65.0288   92.8204   11.8214 C.2     1  UNL1        0.2919
      5 O          65.0923   93.9159   10.7987 O.2     1  UNL1       -0.2563
      6 N          65.7851   92.9526   13.1101 N.am    1  UNL1       -0.1449
      7 C          66.6048   94.1805   13.3761 C.3     1  UNL1        0.2159
      8 C          65.7217   91.8572   14.1327 C.2     1  UNL1        0.3728
      9 N          66.4780   91.9895   15.4214 N.2     1  UNL1       -0.1329
     10 N          64.9021   90.6294   13.8668 N.pl3   1  UNL1       -0.2247
     11 C          64.1458   90.4971   12.5782 C.3     1  UNL1        0.1559
     12 C          63.2609   89.4118   12.0406 C.3     1  UNL1        0.1327
     13 H          67.0159   92.7953   15.5960 H       1  UNL1        0.3058
     14 H          64.8605   89.9104   14.5380 H       1  UNL1        0.2454
     15 C          61.1659   85.2749    8.7898 C.3     1  UNL1        0.0546
     16 C          61.0618   86.7704    8.8402 C.ar    1  UNL1        0.0907
     17 N          61.9716   87.5557    9.7377 N.ar    1  UNL1       -0.2157
     18 C          61.8676   89.0512    9.7881 C.ar    1  UNL1        0.2198
     19 N          60.8537   89.7615    8.9410 N.ar    1  UNL1       -0.2157
     20 C          59.9439   88.9761    8.0435 C.ar    1  UNL1        0.0907
     21 C          58.9301   89.6864    7.1964 C.3     1  UNL1        0.0546
     22 C          60.0479   87.4806    7.9931 C.ar    1  UNL1        0.1671
     23 F          59.1381   86.6953    7.0955 F       1  UNL1       -0.2017
     24 C          63.9877   89.3256   13.5014 C.ar    1  UNL1        0.0397
     25 C          63.8306   87.8922   13.0881 C.ar    1  UNL1        0.0057
     26 C          63.7047   87.0624   14.3313 C.ar    1  UNL1        0.0068
     27 C          63.7840   87.9829   15.5130 C.ar    1  UNL1        0.0352
     28 S          63.9589   89.3816   15.0001 S.2     1  UNL1       -0.0878
     29 C          63.5301   85.5735   14.3837 C.ar    1  UNL1        0.0012
     30 C          63.3047   84.8907   15.7001 C.ar    1  UNL1        0.0001
     31 C          63.1301   83.4018   15.7525 C.ar    1  UNL1        0.0007
     32 C          63.1810   82.5958   14.4884 C.ar    1  UNL1        0.0103
     33 C          63.4063   83.2787   13.1720 C.ar    1  UNL1        0.0684
     34 C          63.5809   84.7675   13.1196 C.ar    1  UNL1        0.0103
     35 C          63.4572   82.4726   11.9080 C.1     1  UNL1        0.1004
     36 N          63.5080   81.6665   10.6441 N.1     1  UNL1       -0.1908
@<TRIPOS>BOND
     1    15    16    1
     2    16    17   ar
     3    17    18   ar
     4    18     1    1
     5     1     2    1
     6     3     2    1
     7     3     4    1
     8     4     5    2
     9     4     6   am
    10     6     7    1
    11     6     8    1
    12     8     9    2
    13     8    10    1
    14    10    11    1
    15    11    24    1
    16    24    25   ar
    17    25    26   ar
    18    26    29    1
    19    29    30   ar
    20    30    31   ar
    21    31    32   ar
    22    32    33   ar
    23    33    35    1
    24    35    36    3
    25    33    34   ar
    26    26    27   ar
    27    27    28   ar
    28    11    12    1
    29    18    19   ar
    30    19    20   ar
    31    20    21    1
    32    20    22   ar
    33    22    23    1
    34    22    16   ar
    35    12     1    1
    36    11     3    1
    37    28    24   ar
    38    34    29   ar
    39     9    13    1
    40    10    14    1
@<TRIPOS>MOLECULE
*****
 36 40 0 0 0
SMALL
GASTEIGER

@<TRIPOS>ATOM
      1 N          62.1009   85.7912   11.3849 N.pl3   1  UNL1       -0.2740
      2 C          61.4270   85.2730   10.1491 C.3     1  UNL1        0.1079
      3 C          60.9146   86.4496    9.3726 C.3     1  UNL1        0.1498
      4 C          60.1688   86.5478    8.0749 C.2     1  UNL1        0.2919
      5 O          59.8116   85.3024    7.3189 O.2     1  UNL1       -0.2563
      6 N          59.7802   87.8915    7.5330 N.am    1  UNL1       -0.1449
      7 C          59.0344   87.9898    6.2352 C.3     1  UNL1        0.2159
      8 C          60.1374   89.1368    8.2889 C.2     1  UNL1        0.3728
      9 N          59.7488   90.4806    7.7471 N.2     1  UNL1       -0.1329
     10 N          60.8831   89.0386    9.5867 N.pl3   1  UNL1       -0.2247
     11 C          61.2717   87.6950   10.1285 C.3     1  UNL1        0.1559
     12 C          62.0050   87.2881   11.3722 C.3     1  UNL1        0.1327
     13 H          59.2594   90.5451    6.8953 H       1  UNL1        0.3058
     14 H          61.1176   89.8560   10.0828 H       1  UNL1        0.2454
     15 C          64.4895   85.4317   15.9856 C.3     1  UNL1        0.0546
     16 C          63.9501   84.7790   14.7474 C.ar    1  UNL1        0.0907
     17 N          63.2952   85.6114   13.6852 N.ar    1  UNL1       -0.2157
     18 C          62.7558   84.9587   12.4471 C.ar    1  UNL1        0.2198
     19 N          62.8714   83.4736   12.2710 N.ar    1  UNL1       -0.2157
     20 C          63.5264   82.6412   13.3332 C.ar    1  UNL1        0.0907
     21 C          63.6419   81.1561   13.1571 C.3     1  UNL1        0.0546
     22 C          64.0657   83.2939   14.5714 C.ar    1  UNL1        0.1671
     23 F          64.7206   82.4614   15.6335 F       1  UNL1       -0.2017
     24 C          61.6954   88.8465   10.9913 C.ar    1  UNL1        0.0397
     25 C          63.1006   89.3357   11.1811 C.ar    1  UNL1        0.0057
     26 C          63.0620   90.5026   12.1229 C.ar    1  UNL1        0.0068
     27 C          61.6329   90.7346   12.5152 C.ar    1  UNL1        0.0352
     28 S          60.7883   89.7110   11.8158 S.2     1  UNL1       -0.0878
     29 C          64.2447   91.2979   12.5904 C.ar    1  UNL1        0.0012
     30 C          64.8570   91.0144   13.9301 C.ar    1  UNL1        0.0001
     31 C          66.0398   91.8096   14.3976 C.ar    1  UNL1        0.0007
     32 C          66.6103   92.8884   13.5254 C.ar    1  UNL1        0.0103
     33 C          65.9980   93.1719   12.1857 C.ar    1  UNL1        0.0684
     34 C          64.8153   92.3767   11.7182 C.ar    1  UNL1        0.0103
     35 C          66.5686   94.2507   11.3135 C.1     1  UNL1        0.1004
     36 N          67.1393   95.3295   10.4414 N.1     1  UNL1       -0.1908
@<TRIPOS>BOND
     1    15    16    1
     2    16    17   ar
     3    17    18   ar
     4    18     1    1
     5     1     2    1
     6     3     2    1
     7     3     4    1
     8     4     5    2
     9     4     6   am
    10     6     7    1
    11     6     8    1
    12     8     9    2
    13     8    10    1
    14    10    11    1
    15    11    24    1
    16    24    25   ar
    17    25    26   ar
    18    26    29    1
    19    29    30   ar
    20    30    31   ar
    21    31    32   ar
    22    32    33   ar
    23    33    35    1
    24    35    36    3
    25    33    34   ar
    26    26    27   ar
    27    27    28   ar
    28    11    12    1
    29    18    19   ar
    30    19    20   ar
    31    20    21    1
    32    20    22   ar
    33    22    23    1
    34    22    16   ar
    35    12     1    1
    36    11     3    1
    37    28    24   ar
    38    34    29   ar
    39     9    13    1
    40    10    14    1
@<TRIPOS>MOLECULE
*****
 36 40 0 0 0
SMALL
GASTEIGER

@<TRIPOS>ATOM
      1 N          62.1079   85.8926   11.3412 N.pl3   1  UNL1       -0.2740
      2 C          61.3831   85.3559   10.1426 C.3     1  UNL1        0.1079
      3 C          60.8786   86.5221    9.3455 C.3     1  UNL1        0.1498
      4 C          60.0965   86.6015    8.0680 C.2     1  UNL1        0.2919
      5 O          59.6835   85.3441    7.3620 O.2     1  UNL1       -0.2563
      6 N          59.7273   87.9384    7.4965 N.am    1  UNL1       -0.1449
      7 C          58.9452   88.0177    6.2189 C.3     1  UNL1        0.2159
      8 C          60.1402   89.1957    8.2024 C.2     1  UNL1        0.3728
      9 N          59.7711   90.5326    7.6309 N.2     1  UNL1       -0.1329
     10 N          60.9223   89.1163    9.4799 N.pl3   1  UNL1       -0.2247
     11 C          61.2915   87.7796   10.0514 C.3     1  UNL1        0.1559
     12 C          62.0513   87.3905   11.2849 C.3     1  UNL1        0.1327
     13 H          59.2578   90.5847    6.7924 H       1  UNL1        0.3058
     14 H          61.1934   89.9416    9.9432 H       1  UNL1        0.2454
     15 C          63.8603   81.3156   13.0674 C.3     1  UNL1        0.0546
     16 C          63.6488   82.7864   13.2719 C.ar    1  UNL1        0.0907
     17 N          62.9841   83.6041   12.2044 N.ar    1  UNL1       -0.2157
     18 C          62.7726   85.0750   12.4088 C.ar    1  UNL1        0.2198
     19 N          63.2258   85.7282   13.6807 N.ar    1  UNL1       -0.2157
     20 C          63.8905   84.9105   14.7482 C.ar    1  UNL1        0.0907
     21 C          64.3437   85.5638   16.0202 C.3     1  UNL1        0.0546
     22 C          64.1020   83.4397   14.5438 C.ar    1  UNL1        0.1671
     23 F          64.7667   82.6220   15.6114 F       1  UNL1       -0.2017
     24 C          61.7717   88.9446   10.8651 C.ar    1  UNL1        0.0397
     25 C          63.1111   89.6095   10.7479 C.ar    1  UNL1        0.0057
     26 C          63.1640   90.7252   11.7492 C.ar    1  UNL1        0.0068
     27 C          61.8572   90.7497   12.4852 C.ar    1  UNL1        0.0352
     28 S          60.9967   89.6493   11.9388 S.2     1  UNL1       -0.0878
     29 C          64.3205   91.6533   11.9749 C.ar    1  UNL1        0.0012
     30 C          64.8901   92.4345   10.8279 C.ar    1  UNL1        0.0001
     31 C          66.0467   93.3626   11.0535 C.ar    1  UNL1        0.0007
     32 C          66.6336   93.5096   12.4261 C.ar    1  UNL1        0.0103
     33 C          66.0640   92.7285   13.5730 C.ar    1  UNL1        0.0684
     34 C          64.9075   91.8003   13.3474 C.ar    1  UNL1        0.0103
     35 C          66.6511   92.8755   14.9455 C.1     1  UNL1        0.1004
     36 N          67.2380   93.0226   16.3181 N.1     1  UNL1       -0.1908
@<TRIPOS>BOND
     1    15    16    1
     2    16    17   ar
     3    17    18   ar
     4    18     1    1
     5     1     2    1
     6     3     2    1
     7     3     4    1
     8     4     5    2
     9     4     6   am
    10     6     7    1
    11     6     8    1
    12     8     9    2
    13     8    10    1
    14    10    11    1
    15    11    24    1
    16    24    25   ar
    17    25    26   ar
    18    26    29    1
    19    29    30   ar
    20    30    31   ar
    21    31    32   ar
    22    32    33   ar
    23    33    35    1
    24    35    36    3
    25    33    34   ar
    26    26    27   ar
    27    27    28   ar
    28    11    12    1
    29    18    19   ar
    30    19    20   ar
    31    20    21    1
    32    20    22   ar
    33    22    23    1
    34    22    16   ar
    35    12     1    1
    36    11     3    1
    37    28    24   ar
    38    34    29   ar
    39     9    13    1
    40    10    14    1
@<TRIPOS>MOLECULE
*****
 36 40 0 0 0
SMALL
GASTEIGER

@<TRIPOS>ATOM
      1 N          62.3531   85.1800   11.6456 N.pl3   1  UNL1       -0.2740
      2 C          61.4390   85.2792   10.4605 C.3     1  UNL1        0.1079
      3 C          61.2816   86.7307   10.1167 C.3     1  UNL1        0.1498
      4 C          60.5000   87.4290    9.0437 C.2     1  UNL1        0.2919
      5 O          59.6831   86.6311    8.0709 O.2     1  UNL1       -0.2563
      6 N          60.5352   88.9253    8.9433 N.am    1  UNL1       -0.1449
      7 C          59.7536   89.6236    7.8702 C.3     1  UNL1        0.2159
      8 C          61.3520   89.7232    9.9159 C.2     1  UNL1        0.3728
      9 N          61.3873   91.2195    9.8156 N.2     1  UNL1       -0.1329
     10 N          62.1337   89.0249   10.9890 N.pl3   1  UNL1       -0.2247
     11 C          62.0984   87.5287   11.0894 C.3     1  UNL1        0.1559
     12 C          62.7607   86.5703   12.0343 C.3     1  UNL1        0.1327
     13 H          60.8743   91.6778    9.1113 H       1  UNL1        0.3058
     14 H          62.6698   89.5486   11.6274 H       1  UNL1        0.2454
     15 C          62.7762   80.0011   11.6544 C.3     1  UNL1        0.0546
     16 C          62.9956   81.3235   12.3275 C.ar    1  UNL1        0.0907
     17 N          62.5647   82.5906   11.6501 N.ar    1  UNL1       -0.2157
     18 C          62.7841   83.9130   12.3231 C.ar    1  UNL1        0.2198
     19 N          63.4344   83.9685   13.6736 N.ar    1  UNL1       -0.2157
     20 C          63.8653   82.7014   14.3511 C.ar    1  UNL1        0.0907
     21 C          64.5156   82.7568   15.7016 C.3     1  UNL1        0.0546
     22 C          63.6459   81.3789   13.6781 C.ar    1  UNL1        0.1671
     23 F          64.0769   80.1119   14.3556 F       1  UNL1       -0.2017
     24 C          62.9558   88.1898   12.1275 C.ar    1  UNL1        0.0397
     25 C          63.5021   89.5852   12.0616 C.ar    1  UNL1        0.0057
     26 C          64.3014   89.8294   13.3072 C.ar    1  UNL1        0.0068
     27 C          64.2492   88.5849   14.1429 C.ar    1  UNL1        0.0352
     28 S          63.4175   87.5716   13.4138 S.2     1  UNL1       -0.0878
     29 C          65.0258   91.0958   13.6559 C.ar    1  UNL1        0.0012
     30 C          65.3882   91.3840   15.0827 C.ar    1  UNL1        0.0001
     31 C          66.1126   92.6504   15.4313 C.ar    1  UNL1        0.0007
     32 C          66.4745   93.6285   14.3532 C.ar    1  UNL1        0.0103
     33 C          66.1121   93.3403   12.9265 C.ar    1  UNL1        0.0684
     34 C          65.3878   92.0739   12.5778 C.ar    1  UNL1        0.0103
     35 C          66.4741   94.3185   11.8484 C.1     1  UNL1        0.1004
     36 N          66.8362   95.2966   10.7704 N.1     1  UNL1       -0.1908
@<TRIPOS>BOND
     1    15    16    1
     2    16    17   ar
     3    17    18   ar
     4    18     1    1
     5     1     2    1
     6     3     2    1
     7     3     4    1
     8     4     5    2
     9     4     6   am
    10     6     7    1
    11     6     8    1
    12     8     9    2
    13     8    10    1
    14    10    11    1
    15    11    24    1
    16    24    25   ar
    17    25    26   ar
    18    26    29    1
    19    29    30   ar
    20    30    31   ar
    21    31    32   ar
    22    32    33   ar
    23    33    35    1
    24    35    36    3
    25    33    34   ar
    26    26    27   ar
    27    27    28   ar
    28    11    12    1
    29    18    19   ar
    30    19    20   ar
    31    20    21    1
    32    20    22   ar
    33    22    23    1
    34    22    16   ar
    35    12     1    1
    36    11     3    1
    37    28    24   ar
    38    34    29   ar
    39     9    13    1
    40    10    14    1
@<TRIPOS>MOLECULE
*****
 36 40 0 0 0
SMALL
GASTEIGER

@<TRIPOS>ATOM
      1 N          63.1718   84.4459   14.2086 N.pl3   1  UNL1       -0.2740
      2 C          63.2323   83.0483   14.7500 C.3     1  UNL1        0.1079
      3 C          63.0883   82.0984   13.5980 C.3     1  UNL1        0.1498
      4 C          63.0739   80.6001   13.5284 C.2     1  UNL1        0.2919
      5 O          63.2234   79.7895   14.7817 O.2     1  UNL1       -0.2563
      6 N          62.9101   79.9123   12.2054 N.am    1  UNL1       -0.1449
      7 C          62.8958   78.4140   12.1358 C.3     1  UNL1        0.2159
      8 C          62.7607   80.7228   10.9522 C.2     1  UNL1        0.3728
      9 N          62.5969   80.0351    9.6292 N.2     1  UNL1       -0.1329
     10 N          62.7750   82.2211   11.0218 N.pl3   1  UNL1       -0.2247
     11 C          62.9388   82.9089   12.3447 C.3     1  UNL1        0.1559
     12 C          62.9905   84.3598   12.7221 C.3     1  UNL1        0.1327
     13 H          62.5874   79.0517    9.5835 H       1  UNL1        0.3058
     14 H          62.6769   82.7531   10.1992 H       1  UNL1        0.2454
     15 C          64.4189   89.4791   14.5431 C.3     1  UNL1        0.0546
     16 C          63.8983   88.2247   15.1798 C.ar    1  UNL1        0.0907
     17 N          63.7954   86.9625   14.3759 N.ar    1  UNL1       -0.2157
     18 C          63.2747   85.7081   15.0126 C.ar    1  UNL1        0.2198
     19 N          62.8569   85.7158   16.4532 N.ar    1  UNL1       -0.2157
     20 C          62.9598   86.9780   17.2571 C.ar    1  UNL1        0.0907
     21 C          62.5419   86.9858   18.6977 C.3     1  UNL1        0.0546
     22 C          63.4804   88.2325   16.6204 C.ar    1  UNL1        0.1671
     23 F          63.5833   89.4946   17.4244 F       1  UNL1       -0.2017
     24 C          62.8010   83.8469   11.1824 C.ar    1  UNL1        0.0397
     25 C          61.7874   84.9448   11.0508 C.ar    1  UNL1        0.0057
     26 C          62.0124   85.6282    9.7346 C.ar    1  UNL1        0.0068
     27 C          63.1651   84.9527    9.0527 C.ar    1  UNL1        0.0352
     28 S          63.6525   83.8518    9.9475 S.2     1  UNL1       -0.0878
     29 C          61.2233   86.7841    9.1950 C.ar    1  UNL1        0.0012
     30 C          60.7629   86.7766    7.7674 C.ar    1  UNL1        0.0001
     31 C          59.9738   87.9325    7.2278 C.ar    1  UNL1        0.0007
     32 C          59.6451   89.0959    8.1158 C.ar    1  UNL1        0.0103
     33 C          60.1056   89.1033    9.5433 C.ar    1  UNL1        0.0684
     34 C          60.8947   87.9475   10.0830 C.ar    1  UNL1        0.0103
     35 C          59.7769   90.2668   10.4313 C.1     1  UNL1        0.1004
     36 N          59.4481   91.4302   11.3192 N.1     1  UNL1       -0.1908
@<TRIPOS>BOND
     1    15    16    1
     2    16    17   ar
     3    17    18   ar
     4    18     1    1
     5     1     2    1
     6     3     2    1
     7     3     4    1
     8     4     5    2
     9     4     6   am
    10     6     7    1
    11     6     8    1
    12     8     9    2
    13     8    10    1
    14    10    11    1
    15    11    24    1
    16    24    25   ar
    17    25    26   ar
    18    26    29    1
    19    29    30   ar
    20    30    31   ar
    21    31    32   ar
    22    32    33   ar
    23    33    35    1
    24    35    36    3
    25    33    34   ar
    26    26    27   ar
    27    27    28   ar
    28    11    12    1
    29    18    19   ar
    30    19    20   ar
    31    20    21    1
    32    20    22   ar
    33    22    23    1
    34    22    16   ar
    35    12     1    1
    36    11     3    1
    37    28    24   ar
    38    34    29   ar
    39     9    13    1
    40    10    14    1
@<TRIPOS>MOLECULE
*****
 36 40 0 0 0
SMALL
GASTEIGER

@<TRIPOS>ATOM
      1 N          64.3628   89.2298   14.2899 N.pl3   1  UNL1       -0.2740
      2 C          65.2643   90.2172   14.9698 C.3     1  UNL1        0.1079
      3 C          65.4131   91.4065   14.0679 C.3     1  UNL1        0.1498
      4 C          66.1811   92.6867   14.2134 C.2     1  UNL1        0.2919
      5 O          66.9907   92.9392   15.4507 O.2     1  UNL1       -0.2563
      6 N          66.1395   93.7145   13.1216 N.am    1  UNL1       -0.1449
      7 C          66.9076   94.9948   13.2671 C.3     1  UNL1        0.2159
      8 C          65.3300   93.4621   11.8844 C.2     1  UNL1        0.3728
      9 N          65.2884   94.4899   10.7925 N.2     1  UNL1       -0.1329
     10 N          64.5620   92.1819   11.7388 N.pl3   1  UNL1       -0.2247
     11 C          64.6035   91.1541   12.8306 C.3     1  UNL1        0.1559
     12 C          63.9544   89.8088   12.9678 C.3     1  UNL1        0.1327
     13 H          65.7925   95.3301   10.8880 H       1  UNL1        0.3058
     14 H          64.0306   92.0162   10.9268 H       1  UNL1        0.2454
     15 C          62.5583   86.3411   18.2141 C.3     1  UNL1        0.0546
     16 C          63.0411   86.4529   16.7984 C.ar    1  UNL1        0.0907
     17 N          63.4606   87.7854   16.2520 N.ar    1  UNL1       -0.2157
     18 C          63.9434   87.8973   14.8362 C.ar    1  UNL1        0.2198
     19 N          64.0067   86.6766   13.9668 N.ar    1  UNL1       -0.2157
     20 C          63.5873   85.3441   14.5132 C.ar    1  UNL1        0.0907
     21 C          63.6506   84.1234   13.6437 C.3     1  UNL1        0.0546
     22 C          63.1044   85.2322   15.9289 C.ar    1  UNL1        0.1671
     23 F          62.6850   83.8997   16.4752 F       1  UNL1       -0.2017
     24 C          63.7545   90.7638   11.6572 C.ar    1  UNL1        0.0397
     25 C          63.0452   89.4542   11.4790 C.ar    1  UNL1        0.0057
     26 C          62.3180   89.4955   10.1676 C.ar    1  UNL1        0.0068
     27 C          62.5781   90.8306    9.5354 C.ar    1  UNL1        0.0352
     28 S          63.4658   91.6144   10.4560 S.2     1  UNL1       -0.0878
     29 C          61.4784   88.3949    9.5900 C.ar    1  UNL1        0.0012
     30 C          60.0089   88.3386    9.8860 C.ar    1  UNL1        0.0001
     31 C          59.1692   87.2380    9.3084 C.ar    1  UNL1        0.0007
     32 C          59.7990   86.1938    8.4349 C.ar    1  UNL1        0.0103
     33 C          61.2684   86.2502    8.1389 C.ar    1  UNL1        0.0684
     34 C          62.1082   87.3507    8.7165 C.ar    1  UNL1        0.0103
     35 C          61.8981   85.2059    7.2654 C.1     1  UNL1        0.1004
     36 N          62.5278   84.1616    6.3919 N.1     1  UNL1       -0.1908
@<TRIPOS>BOND
     1    15    16    1
     2    16    17   ar
     3    17    18   ar
     4    18     1    1
     5     1     2    1
     6     3     2    1
     7     3     4    1
     8     4     5    2
     9     4     6   am
    10     6     7    1
    11     6     8    1
    12     8     9    2
    13     8    10    1
    14    10    11    1
    15    11    24    1
    16    24    25   ar
    17    25    26   ar
    18    26    29    1
    19    29    30   ar
    20    30    31   ar
    21    31    32   ar
    22    32    33   ar
    23    33    35    1
    24    35    36    3
    25    33    34   ar
    26    26    27   ar
    27    27    28   ar
    28    11    12    1
    29    18    19   ar
    30    19    20   ar
    31    20    21    1
    32    20    22   ar
    33    22    23    1
    34    22    16   ar
    35    12     1    1
    36    11     3    1
    37    28    24   ar
    38    34    29   ar
    39     9    13    1
    40    10    14    1
@<TRIPOS>MOLECULE
*****
 36 40 0 0 0
SMALL
GASTEIGER

@<TRIPOS>ATOM
      1 N          63.7690   90.0998   12.7416 N.pl3   1  UNL1       -0.2740
      2 C          63.0095   90.6747   11.5828 C.3     1  UNL1        0.1079
      3 C          62.2894   89.5513   10.8975 C.3     1  UNL1        0.1498
      4 C          61.3881   89.5200    9.6990 C.2     1  UNL1        0.2919
      5 O          61.0735   90.7891    8.9637 O.2     1  UNL1       -0.2563
      6 N          60.8011   88.2196    9.2358 N.am    1  UNL1       -0.1449
      7 C          59.8997   88.1883    8.0371 C.3     1  UNL1        0.2159
      8 C          61.1156   86.9506    9.9710 C.2     1  UNL1        0.3728
      9 N          60.5287   85.6502    9.5077 N.2     1  UNL1       -0.1329
     10 N          62.0170   86.9819   11.1695 N.pl3   1  UNL1       -0.2247
     11 C          62.6039   88.2822   11.6328 C.3     1  UNL1        0.1559
     12 C          63.5183   88.6212   12.7725 C.3     1  UNL1        0.1327
     13 H          59.9370   85.6296    8.7211 H       1  UNL1        0.3058
     14 H          62.2234   86.1490   11.6521 H       1  UNL1        0.2454
     15 C          68.3199   92.3068   13.9325 C.3     1  UNL1        0.0546
     16 C          66.9038   91.9722   14.2965 C.ar    1  UNL1        0.0907
     17 N          66.0444   91.2033   13.3371 N.ar    1  UNL1       -0.2157
     18 C          64.6282   90.8686   13.7010 C.ar    1  UNL1        0.2198
     19 N          64.0714   91.3027   15.0245 N.ar    1  UNL1       -0.2157
     20 C          64.9308   92.0715   15.9839 C.ar    1  UNL1        0.0907
     21 C          64.3739   92.5056   17.3073 C.3     1  UNL1        0.0546
     22 C          66.3469   92.4063   15.6199 C.ar    1  UNL1        0.1671
     23 F          67.2062   93.1751   16.5794 F       1  UNL1       -0.2017
     24 C          63.0065   87.1005   12.4643 C.ar    1  UNL1        0.0397
     25 C          62.6204   85.6730   12.2130 C.ar    1  UNL1        0.0057
     26 C          63.2411   84.8290   13.2865 C.ar    1  UNL1        0.0068
     27 C          64.0108   85.7349   14.2013 C.ar    1  UNL1        0.0352
     28 S          63.8658   87.1388   13.6932 S.2     1  UNL1       -0.0878
     29 C          63.1144   83.3405   13.4215 C.ar    1  UNL1        0.0012
     30 C          64.3170   82.4648   13.2285 C.ar    1  UNL1        0.0001
     31 C          64.1902   80.9763   13.3634 C.ar    1  UNL1        0.0007
     32 C          62.8610   80.3635   13.6914 C.ar    1  UNL1        0.0103
     33 C          61.6585   81.2391   13.8844 C.ar    1  UNL1        0.0684
     34 C          61.7852   82.7276   13.7494 C.ar    1  UNL1        0.0103
     35 C          60.3293   80.6261   14.2124 C.1     1  UNL1        0.1004
     36 N          59.0001   80.0132   14.5403 N.1     1  UNL1       -0.1908
@<TRIPOS>BOND
     1    15    16    1
     2    16    17   ar
     3    17    18   ar
     4    18     1    1
     5     1     2    1
     6     3     2    1
     7     3     4    1
     8     4     5    2
     9     4     6   am
    10     6     7    1
    11     6     8    1
    12     8     9    2
    13     8    10    1
    14    10    11    1
    15    11    24    1
    16    24    25   ar
    17    25    26   ar
    18    26    29    1
    19    29    30   ar
    20    30    31   ar
    21    31    32   ar
    22    32    33   ar
    23    33    35    1
    24    35    36    3
    25    33    34   ar
    26    26    27   ar
    27    27    28   ar
    28    11    12    1
    29    18    19   ar
    30    19    20   ar
    31    20    21    1
    32    20    22   ar
    33    22    23    1
    34    22    16   ar
    35    12     1    1
    36    11     3    1
    37    28    24   ar
    38    34    29   ar
    39     9    13    1
    40    10    14    1
@<TRIPOS>MOLECULE
*****
 36 40 0 0 0
SMALL
GASTEIGER

@<TRIPOS>ATOM
      1 N          63.2990   89.9344   12.4018 N.pl3   1  UNL1       -0.2740
      2 C          62.5094   90.5501   11.2849 C.3     1  UNL1        0.1079
      3 C          61.8223   89.4450   10.5390 C.3     1  UNL1        0.1498
      4 C          60.9114   89.4534    9.3473 C.2     1  UNL1        0.2919
      5 O          60.5465   90.7521    8.6913 O.2     1  UNL1       -0.2563
      6 N          60.3654   88.1631    8.8115 N.am    1  UNL1       -0.1449
      7 C          59.4545   88.1715    7.6197 C.3     1  UNL1        0.2159
      8 C          60.7303   86.8644    9.4674 C.2     1  UNL1        0.3728
      9 N          60.1843   85.5741    8.9316 N.2     1  UNL1       -0.1329
     10 N          61.6412   86.8560   10.6591 N.pl3   1  UNL1       -0.2247
     11 C          62.1872   88.1462   11.1949 C.3     1  UNL1        0.1559
     12 C          63.0999   88.4488   12.3462 C.3     1  UNL1        0.1327
     13 H          59.5865   85.5796    8.1494 H       1  UNL1        0.3058
     14 H          61.8807   86.0036   11.0896 H       1  UNL1        0.2454
     15 C          63.9179   91.9528   17.1498 C.3     1  UNL1        0.0546
     16 C          64.4496   91.6837   15.7733 C.ar    1  UNL1        0.0907
     17 N          63.6085   90.9436   14.7758 N.ar    1  UNL1       -0.2157
     18 C          64.1402   90.6745   13.3992 C.ar    1  UNL1        0.2198
     19 N          65.5129   91.1454   13.0201 N.ar    1  UNL1       -0.2157
     20 C          66.3540   91.8855   14.0176 C.ar    1  UNL1        0.0907
     21 C          67.7268   92.3564   13.6385 C.3     1  UNL1        0.0546
     22 C          65.8224   92.1546   15.3941 C.ar    1  UNL1        0.1671
     23 F          66.6635   92.8947   16.3916 F       1  UNL1       -0.2017
     24 C          62.6380   86.9320   11.9515 C.ar    1  UNL1        0.0397
     25 C          62.1662   85.5264   11.7247 C.ar    1  UNL1        0.0057
     26 C          62.8764   84.6358   12.7007 C.ar    1  UNL1        0.0068
     27 C          63.7871   85.4911   13.5308 C.ar    1  UNL1        0.0352
     28 S          63.6397   86.9103   13.0677 S.2     1  UNL1       -0.0878
     29 C          62.7057   83.1507   12.8249 C.ar    1  UNL1        0.0012
     30 C          62.3532   82.5446   14.1510 C.ar    1  UNL1        0.0001
     31 C          62.1826   81.0596   14.2752 C.ar    1  UNL1        0.0007
     32 C          62.3645   80.1806   13.0733 C.ar    1  UNL1        0.0103
     33 C          62.7170   80.7868   11.7473 C.ar    1  UNL1        0.0684
     34 C          62.8876   82.2718   11.6230 C.ar    1  UNL1        0.0103
     35 C          62.8988   79.9078   10.5455 C.1     1  UNL1        0.1004
     36 N          63.0806   79.0287    9.3437 N.1     1  UNL1       -0.1908
@<TRIPOS>BOND
     1    15    16    1
     2    16    17   ar
     3    17    18   ar
     4    18     1    1
     5     1     2    1
     6     3     2    1
     7     3     4    1
     8     4     5    2
     9     4     6   am
    10     6     7    1
    11     6     8    1
    12     8     9    2
    13     8    10    1
    14    10    11    1
    15    11    24    1
    16    24    25   ar
    17    25    26   ar
    18    26    29    1
    19    29    30   ar
    20    30    31   ar
    21    31    32   ar
    22    32    33   ar
    23    33    35    1
    24    35    36    3
    25    33    34   ar
    26    26    27   ar
    27    27    28   ar
    28    11    12    1
    29    18    19   ar
    30    19    20   ar
    31    20    21    1
    32    20    22   ar
    33    22    23    1
    34    22    16   ar
    35    12     1    1
    36    11     3    1
    37    28    24   ar
    38    34    29   ar
    39     9    13    1
    40    10    14    1
