@<TRIPOS>MOLECULE
*****
 40 43 0 0 0
SMALL
GASTEIGER

@<TRIPOS>ATOM
      1 N          61.6407   88.9828   10.3999 N.pl3   1  UNL1       -0.3025
      2 C          63.0082   89.4649   10.0158 C.3     1  UNL1        0.1124
      3 C          63.8473   90.2109   11.0105 C.3     1  UNL1        0.1149
      4 N          63.3189   90.4747   12.3894 N.am    1  UNL1       -0.2747
      5 C          64.1579   91.2207   13.3841 C.2     1  UNL1        0.2442
      6 O          63.6295   91.4845   14.7629 O.2     1  UNL1       -0.2731
      7 C          61.9514   89.9926   12.7735 C.3     1  UNL1        0.1149
      8 C          61.1123   89.2466   11.7787 C.3     1  UNL1        0.1124
      9 C          60.9579   86.7525    9.2554 C.ar    1  UNL1        0.0075
     10 C          60.1189   86.0066    8.2607 C.ar    1  UNL1       -0.0016
     11 C          59.1236   86.7449    7.4156 C.ar    1  UNL1        0.0021
     12 C          58.9673   88.2292    7.5653 C.ar    1  UNL1        0.0309
     13 C          59.8063   88.9751    8.5600 C.ar    1  UNL1        0.1530
     14 F          59.6501   90.4595    8.7097 F       1  UNL1       -0.2029
     15 C          60.8017   88.2368    9.4051 C.ar    1  UNL1        0.0730
     16 C          61.9532   86.0141   10.1005 C.3     1  UNL1        0.0781
     17 N          63.2594   85.5741    9.5088 N.3     1  UNL1       -0.2951
     18 H          63.4352   86.1749    8.7036 H       1  UNL1        0.1235
     19 C          64.0137   83.1294    9.9616 C.3     1  UNL1        0.0185
     20 C          63.4317   84.1598    9.0397 C.3     1  UNL1        0.0688
     21 C          61.6423   85.7158   11.5373 C.3     1  UNL1        0.0203
     22 C          62.7577   85.5024   12.5173 C.3     1  UNL1        0.0017
     23 C          63.0566   84.1227   13.0245 C.3     1  UNL1        0.0001
     24 C          63.5740   86.6685   12.9902 C.3     1  UNL1        0.0001
     25 C          65.5254   91.7028   13.0000 C.3     1  UNL1        0.1564
     26 N          66.4773   92.1785   14.0571 N.am    1  UNL1       -0.2727
     27 C          66.0991   92.7885   15.3742 C.3     1  UNL1        0.0943
     28 C          67.3626   93.1147   16.1139 C.3     1  UNL1        0.0311
     29 C          68.5217   92.7061   15.2539 C.3     1  UNL1        0.0870
     30 C          67.9746   92.1275   13.9828 C.2     1  UNL1        0.2260
     31 O          68.7828   91.5920   12.8382 O.2     1  UNL1       -0.2749
     32 C          65.9410   91.7093   11.5587 C.3     1  UNL1        0.0564
     33 C          66.3402   92.9960   10.8991 C.ar    1  UNL1       -0.0094
     34 C          65.6582   94.2768   11.2791 C.ar    1  UNL1       -0.0025
     35 C          66.0574   95.5634   10.6195 C.ar    1  UNL1        0.0111
     36 C          67.1386   95.5693    9.5798 C.ar    1  UNL1        0.0585
     37 CL         67.5378   96.8560    8.9201 Cl      1  UNL1       -0.0822
     38 C          67.8206   94.2885    9.1997 C.ar    1  UNL1        0.0225
     39 C          67.4214   93.0018    9.8594 C.ar    1  UNL1        0.0546
     40 CL         68.1034   91.7210    9.4793 Cl      1  UNL1       -0.0825
@<TRIPOS>BOND
     1    19    20    1
     2    20    17    1
     3    17    16    1
     4    16    21    1
     5    21    22    1
     6    22    23    1
     7    22    24    1
     8    16     9    1
     9     9    10   ar
    10    10    11   ar
    11    11    12   ar
    12    12    13   ar
    13    13    14    1
    14    13    15   ar
    15    15     1    1
    16     1     2    1
    17     2     3    1
    18     3     4    1
    19     4     5   am
    20     5     6    2
    21     5    25    1
    22    25    32    1
    23    32    33    1
    24    33    34   ar
    25    34    35   ar
    26    35    36   ar
    27    36    37    1
    28    36    38   ar
    29    38    39   ar
    30    39    40    1
    31    25    26    1
    32    26    27    1
    33    27    28    1
    34    28    29    1
    35    29    30    1
    36    30    31    2
    37     4     7    1
    38     7     8    1
    39    15     9   ar
    40     8     1    1
    41    39    33   ar
    42    30    26   am
    43    17    18    1
@<TRIPOS>MOLECULE
*****
 40 43 0 0 0
SMALL
GASTEIGER

@<TRIPOS>ATOM
      1 N          64.4180   91.0224   13.0987 N.pl3   1  UNL1       -0.3025
      2 C          64.3843   89.5253   13.1862 C.3     1  UNL1        0.1124
      3 C          63.5167   88.7385   12.2491 C.3     1  UNL1        0.1149
      4 N          62.6828   89.4489   11.2243 N.am    1  UNL1       -0.2747
      5 C          61.8152   88.6621   10.2872 C.2     1  UNL1        0.2442
      6 O          60.9813   89.3724    9.2625 O.2     1  UNL1       -0.2731
      7 C          62.7164   90.9459   11.1368 C.3     1  UNL1        0.1149
      8 C          63.5841   91.7327   12.0740 C.3     1  UNL1        0.1124
      9 C          66.3853   92.6729   13.4932 C.ar    1  UNL1        0.0075
     10 C          67.2528   93.4596   14.4304 C.ar    1  UNL1       -0.0016
     11 C          67.0207   93.3825   15.9103 C.ar    1  UNL1        0.0021
     12 C          65.9211   92.5187   16.4531 C.ar    1  UNL1        0.0309
     13 C          65.0535   91.7320   15.5158 C.ar    1  UNL1        0.1530
     14 F          63.9538   90.8682   16.0585 F       1  UNL1       -0.2029
     15 C          65.2856   91.8091   14.0359 C.ar    1  UNL1        0.0730
     16 C          66.6174   92.7500   12.0133 C.3     1  UNL1        0.0781
     17 N          67.7240   91.9557   11.3853 N.3     1  UNL1       -0.2951
     18 H          68.5991   92.3244   11.7576 H       1  UNL1        0.1235
     19 C          69.0300   92.6073    9.2359 C.3     1  UNL1        0.0185
     20 C          67.8689   91.9213    9.8927 C.3     1  UNL1        0.0688
     21 C          65.7428   93.6214   11.1613 C.3     1  UNL1        0.0203
     22 C          66.1874   95.0085   10.8032 C.3     1  UNL1        0.0017
     23 C          66.2206   96.0799   11.8527 C.3     1  UNL1        0.0001
     24 C          66.5989   95.3243    9.3958 C.3     1  UNL1        0.0001
     25 C          61.7815   87.1650   10.3747 C.3     1  UNL1        0.1564
     26 N          61.8376   86.3392    9.1238 N.am    1  UNL1       -0.2727
     27 C          63.0488   85.6386    8.5833 C.3     1  UNL1        0.0943
     28 C          62.6521   84.9353    7.3192 C.3     1  UNL1        0.0311
     29 C          61.1956   85.2013    7.0784 C.3     1  UNL1        0.0870
     30 C          60.6922   86.0689    8.1937 C.2     1  UNL1        0.2260
     31 O          59.2897   86.5770    8.3512 O.2     1  UNL1       -0.2749
     32 C          61.6918   86.4938   11.7131 C.3     1  UNL1        0.0564
     33 C          62.4253   85.2086   11.9582 C.ar    1  UNL1       -0.0094
     34 C          62.1589   84.0154   11.0891 C.ar    1  UNL1       -0.0025
     35 C          62.8924   82.7302   11.3343 C.ar    1  UNL1        0.0111
     36 C          63.8923   82.6381   12.4485 C.ar    1  UNL1        0.0585
     37 CL         64.6258   81.3528   12.6937 Cl      1  UNL1       -0.0822
     38 C          64.1588   83.8313   13.3177 C.ar    1  UNL1        0.0225
     39 C          63.4253   85.1165   13.0726 C.ar    1  UNL1        0.0546
     40 CL         63.6918   86.3096   13.9417 Cl      1  UNL1       -0.0825
@<TRIPOS>BOND
     1    19    20    1
     2    20    17    1
     3    17    16    1
     4    16    21    1
     5    21    22    1
     6    22    23    1
     7    22    24    1
     8    16     9    1
     9     9    10   ar
    10    10    11   ar
    11    11    12   ar
    12    12    13   ar
    13    13    14    1
    14    13    15   ar
    15    15     1    1
    16     1     2    1
    17     2     3    1
    18     3     4    1
    19     4     5   am
    20     5     6    2
    21     5    25    1
    22    25    32    1
    23    32    33    1
    24    33    34   ar
    25    34    35   ar
    26    35    36   ar
    27    36    37    1
    28    36    38   ar
    29    38    39   ar
    30    39    40    1
    31    25    26    1
    32    26    27    1
    33    27    28    1
    34    28    29    1
    35    29    30    1
    36    30    31    2
    37     4     7    1
    38     7     8    1
    39    15     9   ar
    40     8     1    1
    41    39    33   ar
    42    30    26   am
    43    17    18    1
@<TRIPOS>MOLECULE
*****
 40 43 0 0 0
SMALL
GASTEIGER

@<TRIPOS>ATOM
      1 N          61.5763   86.3271    9.5522 N.pl3   1  UNL1       -0.3025
      2 C          61.2752   85.9840   10.9810 C.3     1  UNL1        0.1124
      3 C          62.1142   84.9709   11.7019 C.3     1  UNL1        0.1149
      4 N          63.2544   84.3009   10.9939 N.am    1  UNL1       -0.2747
      5 C          64.0934   83.2879   11.7148 C.2     1  UNL1        0.2442
      6 O          65.2335   82.6179   11.0069 O.2     1  UNL1       -0.2731
      7 C          63.5555   84.6441    9.5651 C.3     1  UNL1        0.1149
      8 C          62.7164   85.6572    8.8442 C.3     1  UNL1        0.1124
      9 C          60.7160   88.7655    9.2984 C.ar    1  UNL1        0.0075
     10 C          59.8770   89.7785    8.5776 C.ar    1  UNL1       -0.0016
     11 C          59.0592   89.3664    7.3896 C.ar    1  UNL1        0.0021
     12 C          59.0804   87.9412    6.9224 C.ar    1  UNL1        0.0309
     13 C          59.9195   86.9281    7.6433 C.ar    1  UNL1        0.1530
     14 F          59.9407   85.5028    7.1762 F       1  UNL1       -0.2029
     15 C          60.7373   87.3403    8.8313 C.ar    1  UNL1        0.0730
     16 C          61.5338   89.1777   10.4864 C.3     1  UNL1        0.0781
     17 N          60.9368   89.1282   11.8616 N.3     1  UNL1       -0.2951
     18 H          61.0169   88.1634   12.1828 H       1  UNL1        0.1235
     19 C          59.0583   90.9140   11.6821 C.3     1  UNL1        0.0185
     20 C          59.5098   89.5386   12.0749 C.3     1  UNL1        0.0688
     21 C          62.9486   89.6393   10.2993 C.3     1  UNL1        0.0203
     22 C          63.4930   90.7513   11.1462 C.3     1  UNL1        0.0017
     23 C          63.9562   92.0253   10.5040 C.3     1  UNL1        0.0001
     24 C          63.5741   90.5893   12.6351 C.3     1  UNL1        0.0001
     25 C          63.7923   82.9447   13.1437 C.3     1  UNL1        0.1564
     26 N          62.6751   81.9979   13.4682 N.am    1  UNL1       -0.2727
     27 C          61.6247   82.2009   14.5197 C.3     1  UNL1        0.0943
     28 C          60.7126   81.0103   14.4996 C.3     1  UNL1        0.0311
     29 C          61.1992   80.0715   13.4357 C.3     1  UNL1        0.0870
     30 C          62.4121   80.6819   12.7983 C.2     1  UNL1        0.2260
     31 O          63.2201   80.0816   11.6862 O.2     1  UNL1       -0.2749
     32 C          64.6083   83.5484   14.2480 C.3     1  UNL1        0.0564
     33 C          64.2537   84.9018   14.7890 C.ar    1  UNL1       -0.0094
     34 C          64.7643   86.1381   14.1103 C.ar    1  UNL1       -0.0025
     35 C          64.4097   87.4915   14.6513 C.ar    1  UNL1        0.0111
     36 C          63.5444   87.6085   15.8709 C.ar    1  UNL1        0.0585
     37 CL         63.1897   88.9618   16.4119 Cl      1  UNL1       -0.0822
     38 C          63.0337   86.3721   16.5496 C.ar    1  UNL1        0.0225
     39 C          63.3884   85.0187   16.0087 C.ar    1  UNL1        0.0546
     40 CL         62.8777   83.7824   16.6873 Cl      1  UNL1       -0.0825
@<TRIPOS>BOND
     1    19    20    1
     2    20    17    1
     3    17    16    1
     4    16    21    1
     5    21    22    1
     6    22    23    1
     7    22    24    1
     8    16     9    1
     9     9    10   ar
    10    10    11   ar
    11    11    12   ar
    12    12    13   ar
    13    13    14    1
    14    13    15   ar
    15    15     1    1
    16     1     2    1
    17     2     3    1
    18     3     4    1
    19     4     5   am
    20     5     6    2
    21     5    25    1
    22    25    32    1
    23    32    33    1
    24    33    34   ar
    25    34    35   ar
    26    35    36   ar
    27    36    37    1
    28    36    38   ar
    29    38    39   ar
    30    39    40    1
    31    25    26    1
    32    26    27    1
    33    27    28    1
    34    28    29    1
    35    29    30    1
    36    30    31    2
    37     4     7    1
    38     7     8    1
    39    15     9   ar
    40     8     1    1
    41    39    33   ar
    42    30    26   am
    43    17    18    1
@<TRIPOS>MOLECULE
*****
 40 43 0 0 0
SMALL
GASTEIGER

@<TRIPOS>ATOM
      1 N          61.5447   89.1222   10.5336 N.pl3   1  UNL1       -0.3025
      2 C          62.6964   89.9869   10.1143 C.3     1  UNL1        0.1124
      3 C          63.4812   90.7426   11.1453 C.3     1  UNL1        0.1149
      4 N          63.1142   90.6338   12.5957 N.am    1  UNL1       -0.2747
      5 C          63.8989   91.3895   13.6266 C.2     1  UNL1        0.2442
      6 O          63.5320   91.2806   15.0769 O.2     1  UNL1       -0.2731
      7 C          61.9625   89.7691   13.0150 C.3     1  UNL1        0.1149
      8 C          61.1777   89.0133   11.9839 C.3     1  UNL1        0.1124
      9 C          60.9393   86.8838    9.3617 C.ar    1  UNL1        0.0075
     10 C          60.1546   86.1281    8.3307 C.ar    1  UNL1       -0.0016
     11 C          59.1905   86.8549    7.4406 C.ar    1  UNL1        0.0021
     12 C          59.0112   88.3375    7.5814 C.ar    1  UNL1        0.0309
     13 C          59.7959   89.0932    8.6124 C.ar    1  UNL1        0.1530
     14 F          59.6166   90.5758    8.7534 F       1  UNL1       -0.2029
     15 C          60.7600   88.3664    9.5026 C.ar    1  UNL1        0.0730
     16 C          61.9033   86.1570   10.2518 C.3     1  UNL1        0.0781
     17 N          61.5152   85.8201   11.6610 N.3     1  UNL1       -0.2951
     18 H          61.0932   86.6592   12.0588 H       1  UNL1        0.1235
     19 C          62.6876   83.8958   12.9543 C.3     1  UNL1        0.0185
     20 C          62.5569   85.3557   12.6352 C.3     1  UNL1        0.0688
     21 C          63.2556   85.7672    9.7328 C.3     1  UNL1        0.0203
     22 C          63.4199   84.5022    8.9436 C.3     1  UNL1        0.0017
     23 C          63.9518   83.2672    9.6084 C.3     1  UNL1        0.0001
     24 C          63.0523   84.4722    7.4897 C.3     1  UNL1        0.0001
     25 C          65.0507   92.2542   13.2073 C.3     1  UNL1        0.1564
     26 N          66.2433   92.4020   14.1049 N.am    1  UNL1       -0.2727
     27 C          66.9228   91.2966   14.8574 C.3     1  UNL1        0.0943
     28 C          68.0653   91.8926   15.6252 C.3     1  UNL1        0.0311
     29 C          68.0919   93.3664   15.3471 C.3     1  UNL1        0.0870
     30 C          66.9659   93.6812   14.4075 C.2     1  UNL1        0.2260
     31 O          66.6227   95.0371   13.8656 O.2     1  UNL1       -0.2749
     32 C          65.0097   92.9711   11.8904 C.3     1  UNL1        0.0564
     33 C          66.1750   92.8799   10.9502 C.ar    1  UNL1       -0.0094
     34 C          67.0113   91.6353   10.9109 C.ar    1  UNL1       -0.0025
     35 C          68.1765   91.5441    9.9707 C.ar    1  UNL1        0.0111
     36 C          68.5055   92.6974    9.0699 C.ar    1  UNL1        0.0585
     37 CL         69.6707   92.6062    8.1298 Cl      1  UNL1       -0.0822
     38 C          67.6692   93.9421    9.1092 C.ar    1  UNL1        0.0225
     39 C          66.5040   94.0334   10.0494 C.ar    1  UNL1        0.0546
     40 CL         65.6677   95.2779   10.0887 Cl      1  UNL1       -0.0825
@<TRIPOS>BOND
     1    19    20    1
     2    20    17    1
     3    17    16    1
     4    16    21    1
     5    21    22    1
     6    22    23    1
     7    22    24    1
     8    16     9    1
     9     9    10   ar
    10    10    11   ar
    11    11    12   ar
    12    12    13   ar
    13    13    14    1
    14    13    15   ar
    15    15     1    1
    16     1     2    1
    17     2     3    1
    18     3     4    1
    19     4     5   am
    20     5     6    2
    21     5    25    1
    22    25    32    1
    23    32    33    1
    24    33    34   ar
    25    34    35   ar
    26    35    36   ar
    27    36    37    1
    28    36    38   ar
    29    38    39   ar
    30    39    40    1
    31    25    26    1
    32    26    27    1
    33    27    28    1
    34    28    29    1
    35    29    30    1
    36    30    31    2
    37     4     7    1
    38     7     8    1
    39    15     9   ar
    40     8     1    1
    41    39    33   ar
    42    30    26   am
    43    17    18    1
@<TRIPOS>MOLECULE
*****
 40 43 0 0 0
SMALL
GASTEIGER

@<TRIPOS>ATOM
      1 N          61.5856   88.9789   10.4712 N.pl3   1  UNL1       -0.3025
      2 C          62.7208   89.8701   10.0623 C.3     1  UNL1        0.1124
      3 C          63.4806   90.6411   11.1006 C.3     1  UNL1        0.1149
      4 N          63.1054   90.5208   12.5480 N.am    1  UNL1       -0.2747
      5 C          63.8652   91.2918   13.5863 C.2     1  UNL1        0.2442
      6 O          63.4899   91.1716   15.0336 O.2     1  UNL1       -0.2731
      7 C          61.9702   89.6297   12.9569 C.3     1  UNL1        0.1149
      8 C          61.2103   88.8587   11.9185 C.3     1  UNL1        0.1124
      9 C          61.0271   86.7274    9.3013 C.ar    1  UNL1        0.0075
     10 C          60.2673   85.9565    8.2629 C.ar    1  UNL1       -0.0016
     11 C          59.3061   86.6662    7.3559 C.ar    1  UNL1        0.0021
     12 C          59.1048   88.1468    7.4874 C.ar    1  UNL1        0.0309
     13 C          59.8647   88.9176    8.5258 C.ar    1  UNL1        0.1530
     14 F          59.6634   90.3983    8.6573 F       1  UNL1       -0.2029
     15 C          60.8258   88.2080    9.4327 C.ar    1  UNL1        0.0730
     16 C          61.9882   86.0177   10.2082 C.3     1  UNL1        0.0781
     17 N          63.3119   85.5501    9.6800 N.3     1  UNL1       -0.2951
     18 H          63.5509   86.1629    8.9004 H       1  UNL1        0.1235
     19 C          64.2163   83.1373   10.0124 C.3     1  UNL1        0.0185
     20 C          63.4678   84.1419    9.1874 C.3     1  UNL1        0.0688
     21 C          61.6257   85.7756   11.6435 C.3     1  UNL1        0.0203
     22 C          62.6634   85.2783   12.6056 C.3     1  UNL1        0.0017
     23 C          63.6449   86.2371   13.2119 C.3     1  UNL1        0.0001
     24 C          62.7198   83.8222   12.9615 C.3     1  UNL1        0.0001
     25 C          65.0003   92.1830   13.1774 C.3     1  UNL1        0.1564
     26 N          66.1834   92.3542   14.0835 N.am    1  UNL1       -0.2727
     27 C          66.8723   91.2640   14.8496 C.3     1  UNL1        0.0943
     28 C          67.9999   91.8817   15.6222 C.3     1  UNL1        0.0311
     29 C          68.0079   93.3537   15.3336 C.3     1  UNL1        0.0870
     30 C          66.8852   93.6457   14.3826 C.2     1  UNL1        0.2260
     31 O          66.5273   94.9927   13.8281 O.2     1  UNL1       -0.2749
     32 C          64.9525   92.9030   11.8624 C.3     1  UNL1        0.0564
     33 C          66.1274   92.8440   10.9318 C.ar    1  UNL1       -0.0094
     34 C          66.9832   91.6131   10.8815 C.ar    1  UNL1       -0.0025
     35 C          68.1582   91.5542    9.9509 C.ar    1  UNL1        0.0111
     36 C          68.4774   92.7260    9.0707 C.ar    1  UNL1        0.0585
     37 CL         69.6523   92.6671    8.1401 Cl      1  UNL1       -0.0822
     38 C          67.6216   93.9570    9.1210 C.ar    1  UNL1        0.0225
     39 C          66.4466   94.0159   10.0516 C.ar    1  UNL1        0.0546
     40 CL         65.5908   95.2468   10.1020 Cl      1  UNL1       -0.0825
@<TRIPOS>BOND
     1    19    20    1
     2    20    17    1
     3    17    16    1
     4    16    21    1
     5    21    22    1
     6    22    23    1
     7    22    24    1
     8    16     9    1
     9     9    10   ar
    10    10    11   ar
    11    11    12   ar
    12    12    13   ar
    13    13    14    1
    14    13    15   ar
    15    15     1    1
    16     1     2    1
    17     2     3    1
    18     3     4    1
    19     4     5   am
    20     5     6    2
    21     5    25    1
    22    25    32    1
    23    32    33    1
    24    33    34   ar
    25    34    35   ar
    26    35    36   ar
    27    36    37    1
    28    36    38   ar
    29    38    39   ar
    30    39    40    1
    31    25    26    1
    32    26    27    1
    33    27    28    1
    34    28    29    1
    35    29    30    1
    36    30    31    2
    37     4     7    1
    38     7     8    1
    39    15     9   ar
    40     8     1    1
    41    39    33   ar
    42    30    26   am
    43    17    18    1
@<TRIPOS>MOLECULE
*****
 40 43 0 0 0
SMALL
GASTEIGER

@<TRIPOS>ATOM
      1 N          63.4527   85.5363   13.8392 N.pl3   1  UNL1       -0.3025
      2 C          64.0084   86.6701   13.0295 C.3     1  UNL1        0.1124
      3 C          64.1607   88.0286   13.6470 C.3     1  UNL1        0.1149
      4 N          63.7572   88.2533   15.0741 N.am    1  UNL1       -0.2747
      5 C          63.9094   89.6118   15.6916 C.2     1  UNL1        0.2442
      6 O          63.5060   89.8365   17.1187 O.2     1  UNL1       -0.2731
      7 C          63.2015   87.1195   15.8838 C.3     1  UNL1        0.1149
      8 C          63.0493   85.7609   15.2663 C.3     1  UNL1        0.1124
      9 C          62.6997   84.0384   11.8544 C.ar    1  UNL1        0.0075
     10 C          62.5475   82.6799   11.2370 C.ar    1  UNL1       -0.0016
     11 C          62.9961   81.4607   11.9869 C.ar    1  UNL1        0.0021
     12 C          63.5968   81.6000   13.3542 C.ar    1  UNL1        0.0309
     13 C          63.7490   82.9585   13.9716 C.ar    1  UNL1        0.1530
     14 F          64.3498   83.0979   15.3390 F       1  UNL1       -0.2029
     15 C          63.3005   84.1777   13.2217 C.ar    1  UNL1        0.0730
     16 C          62.2512   85.2576   11.1045 C.3     1  UNL1        0.0781
     17 N          61.1567   86.1196   11.6603 N.3     1  UNL1       -0.2951
     18 H          60.2765   85.7369   11.3152 H       1  UNL1        0.1235
     19 C          59.8265   88.3034   11.2000 C.3     1  UNL1        0.0185
     20 C          61.1358   87.5897   11.3633 C.3     1  UNL1        0.0688
     21 C          62.8971   85.6148    9.7987 C.3     1  UNL1        0.0203
     22 C          62.1303   85.4687    8.5178 C.3     1  UNL1        0.0017
     23 C          60.7539   86.0527    8.3969 C.3     1  UNL1        0.0001
     24 C          62.7398   84.7386    7.3579 C.3     1  UNL1        0.0001
     25 C          64.4651   90.7457   14.8819 C.3     1  UNL1        0.1564
     26 N          65.7404   91.4136   15.3030 N.am    1  UNL1       -0.2727
     27 C          67.1026   91.1531   14.7315 C.3     1  UNL1        0.0943
     28 C          68.0816   92.0378   15.4449 C.3     1  UNL1        0.0311
     29 C          67.3244   92.8451   16.4574 C.3     1  UNL1        0.0870
     30 C          65.8775   92.4592   16.3697 C.2     1  UNL1        0.2260
     31 O          64.7633   93.0206   17.2025 O.2     1  UNL1       -0.2749
     32 C          63.7455   91.2116   13.6510 C.3     1  UNL1        0.0564
     33 C          64.4980   91.9253   12.5673 C.ar    1  UNL1       -0.0094
     34 C          65.5253   92.9586   12.9230 C.ar    1  UNL1       -0.0025
     35 C          66.2777   93.6723   11.8393 C.ar    1  UNL1        0.0111
     36 C          66.0028   93.3527   10.3998 C.ar    1  UNL1        0.0585
     37 CL         66.7552   94.0664    9.3161 Cl      1  UNL1       -0.0822
     38 C          64.9754   92.3192   10.0440 C.ar    1  UNL1        0.0225
     39 C          64.2230   91.6055   11.1277 C.ar    1  UNL1        0.0546
     40 CL         63.1956   90.5722   10.7720 Cl      1  UNL1       -0.0825
@<TRIPOS>BOND
     1    19    20    1
     2    20    17    1
     3    17    16    1
     4    16    21    1
     5    21    22    1
     6    22    23    1
     7    22    24    1
     8    16     9    1
     9     9    10   ar
    10    10    11   ar
    11    11    12   ar
    12    12    13   ar
    13    13    14    1
    14    13    15   ar
    15    15     1    1
    16     1     2    1
    17     2     3    1
    18     3     4    1
    19     4     5   am
    20     5     6    2
    21     5    25    1
    22    25    32    1
    23    32    33    1
    24    33    34   ar
    25    34    35   ar
    26    35    36   ar
    27    36    37    1
    28    36    38   ar
    29    38    39   ar
    30    39    40    1
    31    25    26    1
    32    26    27    1
    33    27    28    1
    34    28    29    1
    35    29    30    1
    36    30    31    2
    37     4     7    1
    38     7     8    1
    39    15     9   ar
    40     8     1    1
    41    39    33   ar
    42    30    26   am
    43    17    18    1
@<TRIPOS>MOLECULE
*****
 40 43 0 0 0
SMALL
GASTEIGER

@<TRIPOS>ATOM
      1 N          64.0457   90.9582   12.5755 N.pl3   1  UNL1       -0.3025
      2 C          64.0841   89.4614   12.6652 C.3     1  UNL1        0.1124
      3 C          63.1982   88.6341   11.7815 C.3     1  UNL1        0.1149
      4 N          62.2739   89.3037   10.8081 N.am    1  UNL1       -0.2747
      5 C          61.3881   88.4764    9.9245 C.2     1  UNL1        0.2442
      6 O          60.4639   89.1460    8.9511 O.2     1  UNL1       -0.2731
      7 C          62.2355   90.8005   10.7184 C.3     1  UNL1        0.1149
      8 C          63.1215   91.6278   11.6021 C.3     1  UNL1        0.1124
      9 C          65.8045   92.8489   12.8617 C.ar    1  UNL1        0.0075
     10 C          66.6903   93.6761   13.7454 C.ar    1  UNL1       -0.0016
     11 C          66.7032   93.4399   15.2266 C.ar    1  UNL1        0.0021
     12 C          65.8303   92.3765   15.8241 C.ar    1  UNL1        0.0309
     13 C          64.9445   91.5493   14.9404 C.ar    1  UNL1        0.1530
     14 F          64.0715   90.4858   15.5379 F       1  UNL1       -0.2029
     15 C          64.9316   91.7855   13.4592 C.ar    1  UNL1        0.0730
     16 C          65.7916   93.0852   11.3805 C.3     1  UNL1        0.0781
     17 N          65.0773   94.2779   10.8174 N.3     1  UNL1       -0.2951
     18 H          64.7685   94.0207    9.8799 H       1  UNL1        0.1235
     19 C          67.0968   95.6670    9.9560 C.3     1  UNL1        0.0185
     20 C          65.7925   95.5906   10.6928 C.3     1  UNL1        0.0688
     21 C          66.4929   92.1286   10.4623 C.3     1  UNL1        0.0203
     22 C          67.9903   92.0403   10.4728 C.3     1  UNL1        0.0017
     23 C          68.7740   92.4444    9.2593 C.3     1  UNL1        0.0001
     24 C          68.7039   91.5479   11.6968 C.3     1  UNL1        0.0001
     25 C          61.4265   86.9796   10.0142 C.3     1  UNL1        0.1564
     26 N          61.7386   86.1630    8.7953 N.am    1  UNL1       -0.2727
     27 C          63.0640   85.5429    8.4651 C.3     1  UNL1        0.0943
     28 C          62.9247   84.8197    7.1583 C.3     1  UNL1        0.0311
     29 C          61.5132   84.9928    6.6810 C.3     1  UNL1        0.0870
     30 C          60.7802   85.8230    7.6927 C.2     1  UNL1        0.2260
     31 O          59.3414   86.2399    7.6153 O.2     1  UNL1       -0.2749
     32 C          61.1528   86.2994   11.3227 C.3     1  UNL1        0.0564
     33 C          62.2782   85.6755   12.0936 C.ar    1  UNL1       -0.0094
     34 C          62.9612   86.4491   13.1821 C.ar    1  UNL1       -0.0025
     35 C          64.0866   85.8252   13.9529 C.ar    1  UNL1        0.0111
     36 C          64.5290   84.4276   13.6352 C.ar    1  UNL1        0.0585
     37 CL         65.6544   83.8037   14.4060 Cl      1  UNL1       -0.0822
     38 C          63.8460   83.6539   12.5466 C.ar    1  UNL1        0.0225
     39 C          62.7206   84.2778   11.7758 C.ar    1  UNL1        0.0546
     40 CL         62.0376   83.5041   10.6873 Cl      1  UNL1       -0.0825
@<TRIPOS>BOND
     1    19    20    1
     2    20    17    1
     3    17    16    1
     4    16    21    1
     5    21    22    1
     6    22    23    1
     7    22    24    1
     8    16     9    1
     9     9    10   ar
    10    10    11   ar
    11    11    12   ar
    12    12    13   ar
    13    13    14    1
    14    13    15   ar
    15    15     1    1
    16     1     2    1
    17     2     3    1
    18     3     4    1
    19     4     5   am
    20     5     6    2
    21     5    25    1
    22    25    32    1
    23    32    33    1
    24    33    34   ar
    25    34    35   ar
    26    35    36   ar
    27    36    37    1
    28    36    38   ar
    29    38    39   ar
    30    39    40    1
    31    25    26    1
    32    26    27    1
    33    27    28    1
    34    28    29    1
    35    29    30    1
    36    30    31    2
    37     4     7    1
    38     7     8    1
    39    15     9   ar
    40     8     1    1
    41    39    33   ar
    42    30    26   am
    43    17    18    1
@<TRIPOS>MOLECULE
*****
 40 43 0 0 0
SMALL
GASTEIGER

@<TRIPOS>ATOM
      1 N          61.4004   88.9971   10.3747 N.pl3   1  UNL1       -0.3025
      2 C          62.8157   89.4107   10.0991 C.3     1  UNL1        0.1124
      3 C          63.6056   90.1294   11.1524 C.3     1  UNL1        0.1149
      4 N          62.9802   90.4345   12.4813 N.am    1  UNL1       -0.2747
      5 C          63.7701   91.1533   13.5346 C.2     1  UNL1        0.2442
      6 O          63.1448   91.4583   14.8634 O.2     1  UNL1       -0.2731
      7 C          61.5650   90.0209   12.7568 C.3     1  UNL1        0.1149
      8 C          60.7751   89.3021   11.7035 C.3     1  UNL1        0.1124
      9 C          60.7958   86.8034    9.1207 C.ar    1  UNL1        0.0075
     10 C          60.0060   86.0847    8.0673 C.ar    1  UNL1       -0.0016
     11 C          59.0308   86.8409    7.2146 C.ar    1  UNL1        0.0021
     12 C          58.8455   88.3158    7.4152 C.ar    1  UNL1        0.0309
     13 C          59.6353   89.0345    8.4686 C.ar    1  UNL1        0.1530
     14 F          59.4501   90.5095    8.6692 F       1  UNL1       -0.2029
     15 C          60.6105   88.2783    9.3213 C.ar    1  UNL1        0.0730
     16 C          61.7710   86.0472    9.9734 C.3     1  UNL1        0.0781
     17 N          61.3922   85.6427   11.3672 N.3     1  UNL1       -0.2951
     18 H          60.8530   86.4137   11.7613 H       1  UNL1        0.1235
     19 C          62.7010   83.8759   12.7512 C.3     1  UNL1        0.0185
     20 C          62.4590   85.3054   12.3664 C.3     1  UNL1        0.0688
     21 C          63.1250   85.6954    9.4323 C.3     1  UNL1        0.0203
     22 C          63.3197   84.4177    8.6710 C.3     1  UNL1        0.0017
     23 C          62.9664   84.3511    7.2147 C.3     1  UNL1        0.0001
     24 C          63.8677   83.2066    9.3659 C.3     1  UNL1        0.0001
     25 C          65.1854   91.5669   13.2591 C.3     1  UNL1        0.1564
     26 N          65.4737   92.6049   12.2154 N.am    1  UNL1       -0.2727
     27 C          65.3582   92.4189   10.7314 C.3     1  UNL1        0.0943
     28 C          65.7413   93.7102   10.0712 C.3     1  UNL1        0.0311
     29 C          66.0936   94.6942   11.1472 C.3     1  UNL1        0.0870
     30 C          65.9282   94.0111   12.4723 C.2     1  UNL1        0.2260
     31 O          66.1742   94.6261   13.8181 O.2     1  UNL1       -0.2749
     32 C          66.3123   90.9426   14.0273 C.3     1  UNL1        0.0564
     33 C          67.3656   91.8094   14.6512 C.ar    1  UNL1       -0.0094
     34 C          67.1273   92.4285   15.9965 C.ar    1  UNL1       -0.0025
     35 C          68.1805   93.2953   16.6204 C.ar    1  UNL1        0.0111
     36 C          69.4721   93.5431   15.8990 C.ar    1  UNL1        0.0585
     37 CL         70.5253   94.4100   16.5229 Cl      1  UNL1       -0.0822
     38 C          69.7104   92.9240   14.5536 C.ar    1  UNL1        0.0225
     39 C          68.6572   92.0572   13.9297 C.ar    1  UNL1        0.0546
     40 CL         68.8955   91.4381   12.5844 Cl      1  UNL1       -0.0825
@<TRIPOS>BOND
     1    19    20    1
     2    20    17    1
     3    17    16    1
     4    16    21    1
     5    21    22    1
     6    22    23    1
     7    22    24    1
     8    16     9    1
     9     9    10   ar
    10    10    11   ar
    11    11    12   ar
    12    12    13   ar
    13    13    14    1
    14    13    15   ar
    15    15     1    1
    16     1     2    1
    17     2     3    1
    18     3     4    1
    19     4     5   am
    20     5     6    2
    21     5    25    1
    22    25    32    1
    23    32    33    1
    24    33    34   ar
    25    34    35   ar
    26    35    36   ar
    27    36    37    1
    28    36    38   ar
    29    38    39   ar
    30    39    40    1
    31    25    26    1
    32    26    27    1
    33    27    28    1
    34    28    29    1
    35    29    30    1
    36    30    31    2
    37     4     7    1
    38     7     8    1
    39    15     9   ar
    40     8     1    1
    41    39    33   ar
    42    30    26   am
    43    17    18    1
