@<TRIPOS>MOLECULE
*****
 23 25 0 0 0
SMALL
GASTEIGER

@<TRIPOS>ATOM
      1 C          65.5147   92.3655   12.6776 C.ar    1  UNL1        0.0001
      2 C          66.0971   92.3479   14.0598 C.ar    1  UNL1       -0.0003
      3 C          65.4311   91.5538   15.1442 C.ar    1  UNL1       -0.0039
      4 C          64.1828   90.7774   14.8465 C.ar    1  UNL1       -0.0178
      5 C          63.6004   90.7949   13.4643 C.ar    1  UNL1       -0.0039
      6 C          64.2663   91.5890   12.3799 C.ar    1  UNL1       -0.0003
      7 O          68.1783   95.5417    8.3398 O.3     1  UNL1       -0.5029
      8 C          67.5124   94.7477    9.4243 C.ar    1  UNL1        0.1675
      9 C          66.7038   95.4464   10.4768 C.ar    1  UNL1        0.0398
     10 C          66.0379   94.6524   11.5613 C.ar    1  UNL1        0.0033
     11 C          66.1806   93.1596   11.5932 C.ar    1  UNL1        0.0032
     12 C          66.9892   92.4608   10.5406 C.ar    1  UNL1        0.0398
     13 C          67.6551   93.2549    9.4562 C.ar    1  UNL1        0.1675
     14 O          68.4637   92.5560    8.4036 O.3     1  UNL1       -0.5029
     15 H          68.0892   96.4743    8.3199 H       1  UNL1        0.2923
     16 H          68.5528   91.6235    8.4236 H       1  UNL1        0.2923
     17 C          63.5169   89.9833   15.9309 C.3     1  UNL1        0.0527
     18 C          63.6243   88.4872   15.9388 C.ar    1  UNL1       -0.0147
     19 C          64.3829   87.7840   14.8524 C.ar    1  UNL1        0.0167
     20 C          64.4903   86.2879   14.8603 C.ar    1  UNL1        0.0986
     21 N          63.8393   85.4949   15.9546 N.ar    1  UNL1       -0.2423
     22 C          63.0808   86.1981   17.0409 C.ar    1  UNL1        0.0986
     23 C          62.9733   87.6943   17.0331 C.ar    1  UNL1        0.0167
@<TRIPOS>BOND
     1     7     8    1
     2     8     9   ar
     3     9    10   ar
     4    10    11   ar
     5    11     1    1
     6     1     2   ar
     7     2     3   ar
     8     3     4   ar
     9     4    17    1
    10    17    18    1
    11    18    19   ar
    12    19    20   ar
    13    20    21   ar
    14    21    22   ar
    15    22    23   ar
    16     4     5   ar
    17     5     6   ar
    18    11    12   ar
    19    12    13   ar
    20    13    14    1
    21    13     8   ar
    22     6     1   ar
    23    23    18   ar
    24     7    15    1
    25    14    16    1
@<TRIPOS>MOLECULE
*****
 23 25 0 0 0
SMALL
GASTEIGER

@<TRIPOS>ATOM
      1 C          62.3569   88.0645   10.4791 C.ar    1  UNL1        0.0001
      2 C          62.2370   89.5465   10.2811 C.ar    1  UNL1       -0.0003
      3 C          62.6930   90.4863   11.3576 C.ar    1  UNL1       -0.0039
      4 C          63.2688   89.9441   12.6321 C.ar    1  UNL1       -0.0178
      5 C          63.3887   88.4620   12.8301 C.ar    1  UNL1       -0.0039
      6 C          62.9327   87.5223   11.7536 C.ar    1  UNL1       -0.0003
      7 O          60.5329   84.3054    6.1730 O.3     1  UNL1       -0.5029
      8 C          60.9889   85.2451    7.2496 C.ar    1  UNL1        0.1675
      9 C          62.4054   85.1930    7.7401 C.ar    1  UNL1        0.0398
     10 C          62.8614   86.1328    8.8166 C.ar    1  UNL1        0.0033
     11 C          61.9009   87.1247    9.4026 C.ar    1  UNL1        0.0032
     12 C          60.4843   87.1768    8.9121 C.ar    1  UNL1        0.0398
     13 C          60.0283   86.2370    7.8355 C.ar    1  UNL1        0.1675
     14 O          58.6117   86.2892    7.3450 O.3     1  UNL1       -0.5029
     15 H          61.1329   83.6857    5.8070 H       1  UNL1        0.2923
     16 H          58.0117   86.9088    7.7111 H       1  UNL1        0.2923
     17 C          63.7248   90.8838   13.7086 C.3     1  UNL1        0.0527
     18 C          65.0955   91.4896   13.6442 C.ar    1  UNL1       -0.0147
     19 C          65.4542   92.4158   12.5201 C.ar    1  UNL1        0.0167
     20 C          66.8249   93.0215   12.4557 C.ar    1  UNL1        0.0986
     21 N          67.8370   92.7012   13.5154 N.ar    1  UNL1       -0.2423
     22 C          67.4784   91.7750   14.6395 C.ar    1  UNL1        0.0986
     23 C          66.1077   91.1692   14.7039 C.ar    1  UNL1        0.0167
@<TRIPOS>BOND
     1     7     8    1
     2     8     9   ar
     3     9    10   ar
     4    10    11   ar
     5    11     1    1
     6     1     2   ar
     7     2     3   ar
     8     3     4   ar
     9     4    17    1
    10    17    18    1
    11    18    19   ar
    12    19    20   ar
    13    20    21   ar
    14    21    22   ar
    15    22    23   ar
    16     4     5   ar
    17     5     6   ar
    18    11    12   ar
    19    12    13   ar
    20    13    14    1
    21    13     8   ar
    22     6     1   ar
    23    23    18   ar
    24     7    15    1
    25    14    16    1
@<TRIPOS>MOLECULE
*****
 23 25 0 0 0
SMALL
GASTEIGER

@<TRIPOS>ATOM
      1 C          65.5285   92.2899   12.6888 C.ar    1  UNL1        0.0001
      2 C          64.2950   91.4948   12.3785 C.ar    1  UNL1       -0.0003
      3 C          63.6156   90.7110   13.4620 C.ar    1  UNL1       -0.0039
      4 C          64.1696   90.7222   14.8559 C.ar    1  UNL1       -0.0178
      5 C          65.4031   91.5173   15.1662 C.ar    1  UNL1       -0.0039
      6 C          66.0825   92.3011   14.0827 C.ar    1  UNL1       -0.0003
      7 O          68.2462   95.4251    8.3547 O.3     1  UNL1       -0.5029
      8 C          67.5667   94.6413    9.4383 C.ar    1  UNL1        0.1675
      9 C          67.6354   93.1429    9.4357 C.ar    1  UNL1        0.0398
     10 C          66.9560   92.3591   10.5192 C.ar    1  UNL1        0.0033
     11 C          66.2079   93.0737   11.6053 C.ar    1  UNL1        0.0032
     12 C          66.1392   94.5721   11.6079 C.ar    1  UNL1        0.0398
     13 C          66.8187   95.3559   10.5244 C.ar    1  UNL1        0.1675
     14 O          66.7500   96.8543   10.5270 O.3     1  UNL1       -0.5029
     15 H          68.7135   94.9787    7.6763 H       1  UNL1        0.2923
     16 H          66.2827   97.3007   11.2055 H       1  UNL1        0.2923
     17 C          63.4902   89.9384   15.9394 C.3     1  UNL1        0.0527
     18 C          63.5940   88.4422   15.9605 C.ar    1  UNL1       -0.0147
     19 C          62.9277   87.6594   17.0529 C.ar    1  UNL1        0.0167
     20 C          63.0316   86.1632   17.0739 C.ar    1  UNL1        0.0986
     21 N          63.8017   85.4497   16.0026 N.ar    1  UNL1       -0.2423
     22 C          64.4681   86.2324   14.9102 C.ar    1  UNL1        0.0986
     23 C          64.3642   87.7287   14.8891 C.ar    1  UNL1        0.0167
@<TRIPOS>BOND
     1     7     8    1
     2     8     9   ar
     3     9    10   ar
     4    10    11   ar
     5    11     1    1
     6     1     2   ar
     7     2     3   ar
     8     3     4   ar
     9     4    17    1
    10    17    18    1
    11    18    19   ar
    12    19    20   ar
    13    20    21   ar
    14    21    22   ar
    15    22    23   ar
    16     4     5   ar
    17     5     6   ar
    18    11    12   ar
    19    12    13   ar
    20    13    14    1
    21    13     8   ar
    22     6     1   ar
    23    23    18   ar
    24     7    15    1
    25    14    16    1
@<TRIPOS>MOLECULE
*****
 23 25 0 0 0
SMALL
GASTEIGER

@<TRIPOS>ATOM
      1 C          64.5704   90.2055   14.3215 C.ar    1  UNL1        0.0001
      2 C          65.6750   91.0710   14.8511 C.ar    1  UNL1       -0.0003
      3 C          66.1458   92.2546   14.0589 C.ar    1  UNL1       -0.0039
      4 C          65.5119   92.5726   12.7372 C.ar    1  UNL1       -0.0178
      5 C          64.4072   91.7071   12.2077 C.ar    1  UNL1       -0.0039
      6 C          63.9365   90.5235   12.9998 C.ar    1  UNL1       -0.0003
      7 O          62.6873   85.4711   17.4901 O.3     1  UNL1       -0.5029
      8 C          63.1581   86.6547   16.6980 C.ar    1  UNL1        0.1675
      9 C          62.8467   88.0443   17.1690 C.ar    1  UNL1        0.0398
     10 C          63.3175   89.2279   16.3769 C.ar    1  UNL1        0.0033
     11 C          64.0996   89.0219   15.1137 C.ar    1  UNL1        0.0032
     12 C          64.4110   87.6323   14.6426 C.ar    1  UNL1        0.0398
     13 C          63.9402   86.4487   15.4348 C.ar    1  UNL1        0.1675
     14 O          64.2516   85.0590   14.9636 O.3     1  UNL1       -0.5029
     15 H          62.1987   85.5998   18.2792 H       1  UNL1        0.2923
     16 H          64.7402   84.9303   14.1745 H       1  UNL1        0.2923
     17 C          65.9827   93.7562   11.9451 C.3     1  UNL1        0.0527
     18 C          66.7890   93.5508   10.6971 C.ar    1  UNL1       -0.0147
     19 C          67.6262   92.3160   10.5399 C.ar    1  UNL1        0.0167
     20 C          68.4326   92.1105    9.2919 C.ar    1  UNL1        0.0986
     21 N          68.4019   93.1398    8.2011 N.ar    1  UNL1       -0.2423
     22 C          67.5648   94.3744    8.3583 C.ar    1  UNL1        0.0986
     23 C          66.7583   94.5800    9.6063 C.ar    1  UNL1        0.0167
@<TRIPOS>BOND
     1     7     8    1
     2     8     9   ar
     3     9    10   ar
     4    10    11   ar
     5    11     1    1
     6     1     2   ar
     7     2     3   ar
     8     3     4   ar
     9     4    17    1
    10    17    18    1
    11    18    19   ar
    12    19    20   ar
    13    20    21   ar
    14    21    22   ar
    15    22    23   ar
    16     4     5   ar
    17     5     6   ar
    18    11    12   ar
    19    12    13   ar
    20    13    14    1
    21    13     8   ar
    22     6     1   ar
    23    23    18   ar
    24     7    15    1
    25    14    16    1
@<TRIPOS>MOLECULE
*****
 23 25 0 0 0
SMALL
GASTEIGER

@<TRIPOS>ATOM
      1 C          63.5096   86.1227   13.2574 C.ar    1  UNL1        0.0001
      2 C          64.1695   86.5417   14.5376 C.ar    1  UNL1       -0.0003
      3 C          64.3576   87.9982   14.8428 C.ar    1  UNL1       -0.0039
      4 C          63.8859   89.0358   13.8677 C.ar    1  UNL1       -0.0178
      5 C          63.2261   88.6168   12.5874 C.ar    1  UNL1       -0.0039
      6 C          63.0379   87.1603   12.2823 C.ar    1  UNL1       -0.0003
      7 O          62.7571   80.2966   12.0368 O.3     1  UNL1       -0.5029
      8 C          62.9452   81.7531   12.3419 C.ar    1  UNL1        0.1675
      9 C          63.3845   82.6953   11.2606 C.ar    1  UNL1        0.0398
     10 C          63.5727   84.1518   11.5658 C.ar    1  UNL1        0.0033
     11 C          63.3215   84.6662   12.9522 C.ar    1  UNL1        0.0032
     12 C          62.8822   83.7240   14.0335 C.ar    1  UNL1        0.0398
     13 C          62.6941   82.2675   13.7284 C.ar    1  UNL1        0.1675
     14 O          62.2548   81.3253   14.8098 O.3     1  UNL1       -0.5029
     15 H          62.9140   79.9753   11.1707 H       1  UNL1        0.2923
     16 H          62.0979   81.6466   15.6759 H       1  UNL1        0.2923
     17 C          64.0740   90.4923   14.1728 C.3     1  UNL1        0.0527
     18 C          65.2002   91.2524   13.5372 C.ar    1  UNL1       -0.0147
     19 C          64.9928   91.9373   12.2189 C.ar    1  UNL1        0.0167
     20 C          66.1190   92.6974   11.5833 C.ar    1  UNL1        0.0986
     21 N          67.4525   92.7726   12.2660 N.ar    1  UNL1       -0.2423
     22 C          67.6599   92.0878   13.5843 C.ar    1  UNL1        0.0986
     23 C          66.5337   91.3276   14.2200 C.ar    1  UNL1        0.0167
@<TRIPOS>BOND
     1     7     8    1
     2     8     9   ar
     3     9    10   ar
     4    10    11   ar
     5    11     1    1
     6     1     2   ar
     7     2     3   ar
     8     3     4   ar
     9     4    17    1
    10    17    18    1
    11    18    19   ar
    12    19    20   ar
    13    20    21   ar
    14    21    22   ar
    15    22    23   ar
    16     4     5   ar
    17     5     6   ar
    18    11    12   ar
    19    12    13   ar
    20    13    14    1
    21    13     8   ar
    22     6     1   ar
    23    23    18   ar
    24     7    15    1
    25    14    16    1
@<TRIPOS>MOLECULE
*****
 23 25 0 0 0
SMALL
GASTEIGER

@<TRIPOS>ATOM
      1 C          63.0024   86.3569   12.3671 C.ar    1  UNL1        0.0001
      2 C          62.3146   87.1011   11.2612 C.ar    1  UNL1       -0.0003
      3 C          62.3661   88.5997   11.2203 C.ar    1  UNL1       -0.0039
      4 C          63.1055   89.3541   12.2853 C.ar    1  UNL1       -0.0178
      5 C          63.7933   88.6099   13.3912 C.ar    1  UNL1       -0.0039
      6 C          63.7417   87.1113   13.4321 C.ar    1  UNL1       -0.0003
      7 O          62.7962   80.3627   12.5307 O.3     1  UNL1       -0.5029
      8 C          62.8477   81.8613   12.4898 C.ar    1  UNL1        0.1675
      9 C          63.1363   82.5668   11.1980 C.ar    1  UNL1        0.0398
     10 C          63.1879   84.0654   11.1571 C.ar    1  UNL1        0.0033
     11 C          62.9508   84.8584   12.4080 C.ar    1  UNL1        0.0032
     12 C          62.6622   84.1529   13.6998 C.ar    1  UNL1        0.0398
     13 C          62.6107   82.6543   13.7408 C.ar    1  UNL1        0.1675
     14 O          62.3221   81.9488   15.0327 O.3     1  UNL1       -0.5029
     15 H          62.9443   79.8673   11.7493 H       1  UNL1        0.2923
     16 H          62.1740   82.4442   15.8141 H       1  UNL1        0.2923
     17 C          63.1570   90.8526   12.2444 C.3     1  UNL1        0.0527
     18 C          64.4797   91.5557   12.1667 C.ar    1  UNL1       -0.0147
     19 C          64.9353   92.1556   10.8695 C.ar    1  UNL1        0.0167
     20 C          66.2580   92.8587   10.7919 C.ar    1  UNL1        0.0986
     21 N          67.1252   92.9620   12.0114 N.ar    1  UNL1       -0.2423
     22 C          66.6697   92.3621   13.3086 C.ar    1  UNL1        0.0986
     23 C          65.3470   91.6589   13.3863 C.ar    1  UNL1        0.0167
@<TRIPOS>BOND
     1     7     8    1
     2     8     9   ar
     3     9    10   ar
     4    10    11   ar
     5    11     1    1
     6     1     2   ar
     7     2     3   ar
     8     3     4   ar
     9     4    17    1
    10    17    18    1
    11    18    19   ar
    12    19    20   ar
    13    20    21   ar
    14    21    22   ar
    15    22    23   ar
    16     4     5   ar
    17     5     6   ar
    18    11    12   ar
    19    12    13   ar
    20    13    14    1
    21    13     8   ar
    22     6     1   ar
    23    23    18   ar
    24     7    15    1
    25    14    16    1
@<TRIPOS>MOLECULE
*****
 23 25 0 0 0
SMALL
GASTEIGER

@<TRIPOS>ATOM
      1 C          64.5938   91.3273   12.8066 C.ar    1  UNL1        0.0001
      2 C          64.5234   91.8214   11.3921 C.ar    1  UNL1       -0.0003
      3 C          63.3716   91.4264   10.5161 C.ar    1  UNL1       -0.0039
      4 C          62.2902   90.5374   11.0546 C.ar    1  UNL1       -0.0178
      5 C          62.3605   90.0434   12.4691 C.ar    1  UNL1       -0.0039
      6 C          63.5123   90.4383   13.3451 C.ar    1  UNL1       -0.0003
      7 O          69.2010   92.9070   16.3105 O.3     1  UNL1       -0.5029
      8 C          68.0492   92.5121   15.4345 C.ar    1  UNL1        0.1675
      9 C          66.6474   92.5773   15.9641 C.ar    1  UNL1        0.0398
     10 C          65.4956   92.1824   15.0881 C.ar    1  UNL1        0.0033
     11 C          65.7456   91.7222   13.6826 C.ar    1  UNL1        0.0032
     12 C          67.1475   91.6570   13.1530 C.ar    1  UNL1        0.0398
     13 C          68.2993   92.0520   14.0290 C.ar    1  UNL1        0.1675
     14 O          69.7012   91.9867   13.4993 O.3     1  UNL1       -0.5029
     15 H          69.0448   93.1945   17.1886 H       1  UNL1        0.2923
     16 H          69.8574   91.6993   12.6212 H       1  UNL1        0.2923
     17 C          61.1384   90.1425   10.1786 C.3     1  UNL1        0.0527
     18 C          61.1031   88.7784    9.5557 C.ar    1  UNL1       -0.0147
     19 C          59.9584   88.3886    8.6681 C.ar    1  UNL1        0.0167
     20 C          59.9231   87.0245    8.0453 C.ar    1  UNL1        0.0986
     21 N          61.0324   86.0502    8.3099 N.ar    1  UNL1       -0.2423
     22 C          62.1771   86.4400    9.1975 C.ar    1  UNL1        0.0986
     23 C          62.2124   87.8041    9.8204 C.ar    1  UNL1        0.0167
@<TRIPOS>BOND
     1     7     8    1
     2     8     9   ar
     3     9    10   ar
     4    10    11   ar
     5    11     1    1
     6     1     2   ar
     7     2     3   ar
     8     3     4   ar
     9     4    17    1
    10    17    18    1
    11    18    19   ar
    12    19    20   ar
    13    20    21   ar
    14    21    22   ar
    15    22    23   ar
    16     4     5   ar
    17     5     6   ar
    18    11    12   ar
    19    12    13   ar
    20    13    14    1
    21    13     8   ar
    22     6     1   ar
    23    23    18   ar
    24     7    15    1
    25    14    16    1
@<TRIPOS>MOLECULE
*****
 23 25 0 0 0
SMALL
GASTEIGER

@<TRIPOS>ATOM
      1 C          63.5901   90.3417   12.0657 C.ar    1  UNL1        0.0001
      2 C          62.8913   90.8296   10.8314 C.ar    1  UNL1       -0.0003
      3 C          61.9246   89.9350   10.1136 C.ar    1  UNL1       -0.0039
      4 C          61.6567   88.5525   10.6301 C.ar    1  UNL1       -0.0178
      5 C          62.3555   88.0645   11.8644 C.ar    1  UNL1       -0.0039
      6 C          63.3222   88.9591   12.5822 C.ar    1  UNL1       -0.0003
      7 O          67.4568   93.9201   14.9368 O.3     1  UNL1       -0.5029
      8 C          66.4901   93.0255   14.2191 C.ar    1  UNL1        0.1675
      9 C          65.9058   91.8358   14.9213 C.ar    1  UNL1        0.0398
     10 C          64.9391   90.9412   14.2035 C.ar    1  UNL1        0.0033
     11 C          64.5567   91.2363   12.7835 C.ar    1  UNL1        0.0032
     12 C          65.1410   92.4259   12.0812 C.ar    1  UNL1        0.0398
     13 C          66.1077   93.3205   12.7990 C.ar    1  UNL1        0.1675
     14 O          66.6920   94.5103   12.0966 O.3     1  UNL1       -0.5029
     15 H          67.6957   93.7357   15.8239 H       1  UNL1        0.2923
     16 H          66.4531   94.6946   11.2095 H       1  UNL1        0.2923
     17 C          60.6900   87.6579    9.9123 C.3     1  UNL1        0.0527
     18 C          61.1922   86.6639    8.9074 C.ar    1  UNL1       -0.0147
     19 C          62.5957   86.1432    9.0043 C.ar    1  UNL1        0.0167
     20 C          63.0979   85.1493    7.9994 C.ar    1  UNL1        0.0986
     21 N          62.1967   84.6760    6.8976 N.ar    1  UNL1       -0.2423
     22 C          60.7933   85.1966    6.8008 C.ar    1  UNL1        0.0986
     23 C          60.2910   86.1906    7.8057 C.ar    1  UNL1        0.0167
@<TRIPOS>BOND
     1     7     8    1
     2     8     9   ar
     3     9    10   ar
     4    10    11   ar
     5    11     1    1
     6     1     2   ar
     7     2     3   ar
     8     3     4   ar
     9     4    17    1
    10    17    18    1
    11    18    19   ar
    12    19    20   ar
    13    20    21   ar
    14    21    22   ar
    15    22    23   ar
    16     4     5   ar
    17     5     6   ar
    18    11    12   ar
    19    12    13   ar
    20    13    14    1
    21    13     8   ar
    22     6     1   ar
    23    23    18   ar
    24     7    15    1
    25    14    16    1
@<TRIPOS>MOLECULE
*****
 23 25 0 0 0
SMALL
GASTEIGER

@<TRIPOS>ATOM
      1 C          62.3776   89.6088   10.2776 C.ar    1  UNL1        0.0001
      2 C          62.8044   90.8642    9.5764 C.ar    1  UNL1       -0.0003
      3 C          63.7337   91.8247   10.2574 C.ar    1  UNL1       -0.0039
      4 C          64.2362   91.5298   11.6396 C.ar    1  UNL1       -0.0178
      5 C          63.8093   90.2744   12.3408 C.ar    1  UNL1       -0.0039
      6 C          62.8800   89.3139   11.6598 C.ar    1  UNL1       -0.0003
      7 O          58.6603   85.7667    7.5536 O.3     1  UNL1       -0.5029
      8 C          59.5896   86.7272    8.2346 C.ar    1  UNL1        0.1675
      9 C          60.6709   86.2121    9.1375 C.ar    1  UNL1        0.0398
     10 C          61.6002   87.1726    9.8186 C.ar    1  UNL1        0.0033
     11 C          61.4483   88.6482    9.5966 C.ar    1  UNL1        0.0032
     12 C          60.3670   89.1634    8.6936 C.ar    1  UNL1        0.0398
     13 C          59.4377   88.2028    8.0126 C.ar    1  UNL1        0.1675
     14 O          58.3563   88.7180    7.1096 O.3     1  UNL1       -0.5029
     15 H          58.7553   84.8449    7.6922 H       1  UNL1        0.2923
     16 H          58.2614   89.6399    6.9709 H       1  UNL1        0.2923
     17 C          65.1655   92.4903   12.3206 C.3     1  UNL1        0.0527
     18 C          66.0350   93.3995   11.5037 C.ar    1  UNL1       -0.0147
     19 C          67.0234   92.8211   10.5349 C.ar    1  UNL1        0.0167
     20 C          67.8929   93.7303    9.7180 C.ar    1  UNL1        0.0986
     21 N          67.7741   95.2178    9.8699 N.ar    1  UNL1       -0.2423
     22 C          66.7858   95.7962   10.8387 C.ar    1  UNL1        0.0986
     23 C          65.9162   94.8870   11.6557 C.ar    1  UNL1        0.0167
@<TRIPOS>BOND
     1     7     8    1
     2     8     9   ar
     3     9    10   ar
     4    10    11   ar
     5    11     1    1
     6     1     2   ar
     7     2     3   ar
     8     3     4   ar
     9     4    17    1
    10    17    18    1
    11    18    19   ar
    12    19    20   ar
    13    20    21   ar
    14    21    22   ar
    15    22    23   ar
    16     4     5   ar
    17     5     6   ar
    18    11    12   ar
    19    12    13   ar
    20    13    14    1
    21    13     8   ar
    22     6     1   ar
    23    23    18   ar
    24     7    15    1
    25    14    16    1
