@<TRIPOS>MOLECULE
*****
 38 43 0 0 0
SMALL
GASTEIGER

@<TRIPOS>ATOM
      1 C          62.7100   89.1349   12.6136 C.3     1  UNL1        0.1412
      2 N          63.1480   87.7640   13.0365 N.3     1  UNL1       -0.2630
      3 C          64.0825   87.7123   14.2088 C.3     1  UNL1        0.0742
      4 C          64.6935   86.5098   14.8654 C.3     1  UNL1        0.0347
      5 C          64.5208   85.0625   14.5119 C.3     1  UNL1        0.0735
      6 N          63.6946   84.4597   13.4146 N.3     1  UNL1       -0.2727
      7 C          62.8369   85.1557   12.3997 C.3     1  UNL1        0.0896
      8 C          62.5937   86.6263   12.2315 C.3     1  UNL1        0.0902
      9 C          63.7307   82.9632   13.3196 C.3     1  UNL1        0.0575
     10 C          64.4345   81.9729   12.4397 C.3     1  UNL1        0.0160
     11 C          63.7820   80.8468   13.1852 C.3     1  UNL1        0.0028
     12 C          63.0782   81.8369   14.0652 C.3     1  UNL1        0.0160
     13 C          65.6836   92.5103   12.4944 C.ar    1  UNL1       -0.0062
     14 C          65.5699   91.6538   13.7206 C.ar    1  UNL1       -0.0032
     15 C          64.5788   90.5287   13.7604 C.ar    1  UNL1       -0.0028
     16 C          63.7011   90.2600   12.5738 C.ar    1  UNL1       -0.0005
     17 C          63.8148   91.1165   11.3477 C.ar    1  UNL1       -0.0028
     18 C          64.8061   92.2416   11.3080 C.ar    1  UNL1       -0.0032
     19 C          66.6748   93.6354   12.4547 C.3     1  UNL1        0.0992
     20 C          67.3606   96.8537    7.4375 C.3     1  UNL1        0.0897
     21 N          67.1891   96.0491    8.6918 N.3     1  UNL1       -0.2691
     22 C          66.5130   96.6558    9.8855 C.3     1  UNL1        0.0897
     23 C          66.3415   95.8512   11.1398 C.3     1  UNL1        0.0899
     24 N          66.8463   94.4400   11.2004 N.3     1  UNL1       -0.2665
     25 C          67.5224   93.8333   10.0068 C.3     1  UNL1        0.0899
     26 C          67.6938   94.6379    8.7525 C.3     1  UNL1        0.0897
     27 C          61.2807   89.3806   12.2304 C.ar    1  UNL1        0.1798
     28 N          60.1587   89.7046   13.1717 N.ar    1  UNL1       -0.1110
     29 N          58.9071   89.8697   12.3617 N.ar    1  UNL1       -0.0229
     30 N          59.2555   89.6476   10.9198 N.ar    1  UNL1       -0.0428
     31 N          60.7225   89.3453   10.8386 N.ar    1  UNL1       -0.2108
     32 C          61.4955   89.0582    9.5856 C.3     1  UNL1        0.1570
     33 C          61.3079   87.7527    8.8711 C.ar    1  UNL1        0.0022
     34 C          62.4158   86.7416    8.8531 C.ar    1  UNL1       -0.0023
     35 C          62.2282   85.4361    8.1386 C.ar    1  UNL1       -0.0003
     36 C          60.9326   85.1417    7.4422 C.ar    1  UNL1       -0.0000
     37 C          59.8248   86.1528    7.4603 C.ar    1  UNL1       -0.0003
     38 C          60.0124   87.4583    8.1748 C.ar    1  UNL1       -0.0023
@<TRIPOS>BOND
     1    20    21    1
     2    21    22    1
     3    22    23    1
     4    23    24    1
     5    24    19    1
     6    19    13    1
     7    13    14   ar
     8    14    15   ar
     9    15    16   ar
    10    16     1    1
    11     1    27    1
    12    27    28   ar
    13    28    29   ar
    14    29    30   ar
    15    30    31   ar
    16    31    32    1
    17    32    33    1
    18    33    34   ar
    19    34    35   ar
    20    35    36   ar
    21    36    37   ar
    22    37    38   ar
    23     1     2    1
    24     2     3    1
    25     3     4    1
    26     4     5    1
    27     5     6    1
    28     6     9    1
    29     9    10    1
    30    10    11    1
    31    11    12    1
    32     6     7    1
    33     7     8    1
    34    16    17   ar
    35    17    18   ar
    36    24    25    1
    37    25    26    1
    38    26    21    1
    39    18    13   ar
    40    31    27   ar
    41    38    33   ar
    42     8     2    1
    43    12     9    1
@<TRIPOS>MOLECULE
*****
 38 43 0 0 0
SMALL
GASTEIGER

@<TRIPOS>ATOM
      1 C          63.1821   89.6047   13.5210 C.3     1  UNL1        0.1412
      2 N          62.2329   89.1098   12.4702 N.3     1  UNL1       -0.2630
      3 C          60.8494   89.6875   12.5190 C.3     1  UNL1        0.0742
      4 C          59.6839   89.4007   11.6192 C.3     1  UNL1        0.0347
      5 C          59.6141   88.4655   10.4486 C.3     1  UNL1        0.0735
      6 N          60.6925   87.5860    9.8885 N.3     1  UNL1       -0.2727
      7 C          62.1070   87.4246   10.3608 C.3     1  UNL1        0.0896
      8 C          62.7925   88.1027   11.5098 C.3     1  UNL1        0.0902
      9 C          60.3051   86.7586    8.6989 C.3     1  UNL1        0.0575
     10 C          59.0741   86.6308    7.8512 C.3     1  UNL1        0.0160
     11 C          59.7572   85.5884    7.0164 C.3     1  UNL1        0.0028
     12 C          60.9881   85.7161    7.8640 C.3     1  UNL1        0.0160
     13 C          65.9602   93.0259   12.6118 C.ar    1  UNL1       -0.0062
     14 C          64.9245   92.6138   11.6081 C.ar    1  UNL1       -0.0032
     15 C          63.9985   91.4734   11.9111 C.ar    1  UNL1       -0.0028
     16 C          64.1082   90.7451   13.2179 C.ar    1  UNL1       -0.0005
     17 C          65.1439   91.1572   14.2216 C.ar    1  UNL1       -0.0028
     18 C          66.0699   92.2977   13.9185 C.ar    1  UNL1       -0.0032
     19 C          66.8863   94.1664   12.3087 C.3     1  UNL1        0.0992
     20 C          66.6797   96.8560    6.9493 C.3     1  UNL1        0.0897
     21 N          66.7314   96.1836    8.2892 N.3     1  UNL1       -0.2691
     22 C          67.4264   94.8629    8.4393 C.3     1  UNL1        0.0897
     23 C          67.4781   94.1904    9.7791 C.3     1  UNL1        0.0899
     24 N          66.8347   94.8388   10.9689 N.3     1  UNL1       -0.2665
     25 C          66.1396   96.1595   10.8189 C.3     1  UNL1        0.0899
     26 C          66.0880   96.8319    9.4791 C.3     1  UNL1        0.0897
     27 C          63.2052   88.9591   14.8747 C.ar    1  UNL1        0.1798
     28 N          62.6863   89.5603   16.1473 N.ar    1  UNL1       -0.1110
     29 N          62.9117   88.5718   17.2527 N.ar    1  UNL1       -0.0229
     30 N          63.5699   87.3596   16.6634 N.ar    1  UNL1       -0.0428
     31 N          63.7514   87.5989   15.1937 N.ar    1  UNL1       -0.2108
     32 C          64.3702   86.6456   14.2149 C.3     1  UNL1        0.1570
     33 C          63.7745   85.2834   14.0157 C.ar    1  UNL1        0.0022
     34 C          63.6410   84.3457   15.1788 C.ar    1  UNL1       -0.0023
     35 C          63.0453   82.9836   14.9796 C.ar    1  UNL1       -0.0003
     36 C          62.5831   82.5591   13.6171 C.ar    1  UNL1       -0.0000
     37 C          62.7166   83.4968   12.4540 C.ar    1  UNL1       -0.0003
     38 C          63.3124   84.8590   12.6532 C.ar    1  UNL1       -0.0023
@<TRIPOS>BOND
     1    20    21    1
     2    21    22    1
     3    22    23    1
     4    23    24    1
     5    24    19    1
     6    19    13    1
     7    13    14   ar
     8    14    15   ar
     9    15    16   ar
    10    16     1    1
    11     1    27    1
    12    27    28   ar
    13    28    29   ar
    14    29    30   ar
    15    30    31   ar
    16    31    32    1
    17    32    33    1
    18    33    34   ar
    19    34    35   ar
    20    35    36   ar
    21    36    37   ar
    22    37    38   ar
    23     1     2    1
    24     2     3    1
    25     3     4    1
    26     4     5    1
    27     5     6    1
    28     6     9    1
    29     9    10    1
    30    10    11    1
    31    11    12    1
    32     6     7    1
    33     7     8    1
    34    16    17   ar
    35    17    18   ar
    36    24    25    1
    37    25    26    1
    38    26    21    1
    39    18    13   ar
    40    31    27   ar
    41    38    33   ar
    42     8     2    1
    43    12     9    1
@<TRIPOS>MOLECULE
*****
 38 43 0 0 0
SMALL
GASTEIGER

@<TRIPOS>ATOM
      1 C          62.9020   89.7898   12.3914 C.3     1  UNL1        0.1412
      2 N          63.8849   90.9146   12.2541 N.3     1  UNL1       -0.2630
      3 C          64.6772   91.2403   13.4855 C.3     1  UNL1        0.0742
      4 C          65.7259   92.2968   13.6705 C.3     1  UNL1        0.0347
      5 C          66.2411   93.2884   12.6699 C.3     1  UNL1        0.0735
      6 N          65.8350   93.4686   11.2372 N.3     1  UNL1       -0.2727
      7 C          64.8133   92.7015   10.4512 C.3     1  UNL1        0.0896
      8 C          63.9455   91.5649   10.9039 C.3     1  UNL1        0.0902
      9 C          66.5443   94.5601   10.4920 C.3     1  UNL1        0.0575
     10 C          66.5119   96.0595   10.5222 C.3     1  UNL1        0.0160
     11 C          67.5475   96.1038    9.4380 C.3     1  UNL1        0.0028
     12 C          67.5801   94.6044    9.4078 C.3     1  UNL1        0.0160
     13 C          64.2153   85.8539   14.1332 C.ar    1  UNL1       -0.0062
     14 C          63.4295   85.8839   12.8558 C.ar    1  UNL1       -0.0032
     15 C          62.9918   87.1959   12.2752 C.ar    1  UNL1       -0.0028
     16 C          63.3398   88.4779   12.9720 C.ar    1  UNL1       -0.0005
     17 C          64.1255   88.4479   14.2493 C.ar    1  UNL1       -0.0028
     18 C          64.5633   87.1358   14.8299 C.ar    1  UNL1       -0.0032
     19 C          64.6531   84.5419   14.7138 C.3     1  UNL1        0.0992
     20 C          61.8447   79.4786   13.1408 C.3     1  UNL1        0.0897
     21 N          62.5468   80.7444   13.5340 N.3     1  UNL1       -0.2691
     22 C          61.9149   81.6756   14.5258 C.3     1  UNL1        0.0897
     23 C          62.6169   82.9415   14.9191 C.3     1  UNL1        0.0899
     24 N          63.9510   83.2761   14.3205 N.3     1  UNL1       -0.2665
     25 C          64.5830   82.3450   13.3288 C.3     1  UNL1        0.0899
     26 C          63.8809   81.0792   12.9355 C.3     1  UNL1        0.0897
     27 C          61.4813   89.9770   11.9481 C.ar    1  UNL1        0.1798
     28 N          60.3535   90.4883   12.7947 N.ar    1  UNL1       -0.1110
     29 N          59.1142   90.5132   11.9502 N.ar    1  UNL1       -0.0229
     30 N          59.4759   90.0172   10.5815 N.ar    1  UNL1       -0.0428
     31 N          60.9389   89.6859   10.5802 N.ar    1  UNL1       -0.2108
     32 C          61.7219   89.1564    9.4156 C.3     1  UNL1        0.1570
     33 C          61.3276   87.8589    8.7744 C.ar    1  UNL1        0.0022
     34 C          62.2893   86.7078    8.7578 C.ar    1  UNL1       -0.0023
     35 C          61.8950   85.4103    8.1167 C.ar    1  UNL1       -0.0003
     36 C          60.5391   85.2640    7.4921 C.ar    1  UNL1       -0.0000
     37 C          59.5775   86.4150    7.5087 C.ar    1  UNL1       -0.0003
     38 C          59.9717   87.7126    8.1498 C.ar    1  UNL1       -0.0023
@<TRIPOS>BOND
     1    20    21    1
     2    21    22    1
     3    22    23    1
     4    23    24    1
     5    24    19    1
     6    19    13    1
     7    13    14   ar
     8    14    15   ar
     9    15    16   ar
    10    16     1    1
    11     1    27    1
    12    27    28   ar
    13    28    29   ar
    14    29    30   ar
    15    30    31   ar
    16    31    32    1
    17    32    33    1
    18    33    34   ar
    19    34    35   ar
    20    35    36   ar
    21    36    37   ar
    22    37    38   ar
    23     1     2    1
    24     2     3    1
    25     3     4    1
    26     4     5    1
    27     5     6    1
    28     6     9    1
    29     9    10    1
    30    10    11    1
    31    11    12    1
    32     6     7    1
    33     7     8    1
    34    16    17   ar
    35    17    18   ar
    36    24    25    1
    37    25    26    1
    38    26    21    1
    39    18    13   ar
    40    31    27   ar
    41    38    33   ar
    42     8     2    1
    43    12     9    1
@<TRIPOS>MOLECULE
*****
 38 43 0 0 0
SMALL
GASTEIGER

@<TRIPOS>ATOM
      1 C          62.9759   89.1380   12.7458 C.3     1  UNL1        0.1412
      2 N          64.0170   90.1898   12.9903 N.3     1  UNL1       -0.2630
      3 C          64.1607   91.2256   11.9148 C.3     1  UNL1        0.0742
      4 C          65.0997   92.3942   11.8613 C.3     1  UNL1        0.0347
      5 C          66.1267   92.8156   12.8700 C.3     1  UNL1        0.0735
      6 N          66.4686   92.1725   14.1814 N.3     1  UNL1       -0.2727
      7 C          65.8678   90.9492   14.8078 C.3     1  UNL1        0.0896
      8 C          64.7767   90.0668   14.2777 C.3     1  UNL1        0.0902
      9 C          67.5549   92.8412   14.9705 C.3     1  UNL1        0.0575
     10 C          68.7278   92.3652   15.7754 C.3     1  UNL1        0.0160
     11 C          69.0912   93.7868   16.0866 C.3     1  UNL1        0.0028
     12 C          67.9183   94.2629   15.2818 C.3     1  UNL1        0.0160
     13 C          63.8967   84.8179   13.6052 C.ar    1  UNL1       -0.0062
     14 C          63.0303   85.1819   12.4360 C.ar    1  UNL1       -0.0032
     15 C          62.7234   86.6219   12.1495 C.ar    1  UNL1       -0.0028
     16 C          63.2829   87.6980   13.0323 C.ar    1  UNL1       -0.0005
     17 C          64.1493   87.3340   14.2014 C.ar    1  UNL1       -0.0028
     18 C          64.4562   85.8939   14.4878 C.ar    1  UNL1       -0.0032
     19 C          64.2037   83.3778   13.8916 C.3     1  UNL1        0.0992
     20 C          62.6475   79.1358    9.9441 C.3     1  UNL1        0.0897
     21 N          63.0365   80.1963   10.9310 N.3     1  UNL1       -0.2691
     22 C          63.7598   81.4251   10.4653 C.3     1  UNL1        0.0897
     23 C          64.1489   82.4857   11.4522 C.3     1  UNL1        0.0899
     24 N          63.8146   82.3173   12.9048 N.3     1  UNL1       -0.2665
     25 C          63.0914   81.0885   13.3705 C.3     1  UNL1        0.0899
     26 C          62.7023   80.0280   12.3836 C.3     1  UNL1        0.0897
     27 C          61.6279   89.5262   12.2148 C.ar    1  UNL1        0.1798
     28 N          60.4955   90.0970   13.0161 N.ar    1  UNL1       -0.1110
     29 N          59.3433   90.3355   12.0858 N.ar    1  UNL1       -0.0229
     30 N          59.7635   89.9121   10.7095 N.ar    1  UNL1       -0.0428
     31 N          61.1754   89.4119   10.7892 N.ar    1  UNL1       -0.2108
     32 C          61.9916   88.8893    9.6444 C.3     1  UNL1        0.1570
     33 C          61.5399   87.6701    8.8963 C.ar    1  UNL1        0.0022
     34 C          62.4941   86.5363    8.6640 C.ar    1  UNL1       -0.0023
     35 C          62.0424   85.3172    7.9159 C.ar    1  UNL1       -0.0003
     36 C          60.6364   85.2319    7.4000 C.ar    1  UNL1       -0.0000
     37 C          59.6822   86.3657    7.6323 C.ar    1  UNL1       -0.0003
     38 C          60.1339   87.5848    8.3804 C.ar    1  UNL1       -0.0023
@<TRIPOS>BOND
     1    20    21    1
     2    21    22    1
     3    22    23    1
     4    23    24    1
     5    24    19    1
     6    19    13    1
     7    13    14   ar
     8    14    15   ar
     9    15    16   ar
    10    16     1    1
    11     1    27    1
    12    27    28   ar
    13    28    29   ar
    14    29    30   ar
    15    30    31   ar
    16    31    32    1
    17    32    33    1
    18    33    34   ar
    19    34    35   ar
    20    35    36   ar
    21    36    37   ar
    22    37    38   ar
    23     1     2    1
    24     2     3    1
    25     3     4    1
    26     4     5    1
    27     5     6    1
    28     6     9    1
    29     9    10    1
    30    10    11    1
    31    11    12    1
    32     6     7    1
    33     7     8    1
    34    16    17   ar
    35    17    18   ar
    36    24    25    1
    37    25    26    1
    38    26    21    1
    39    18    13   ar
    40    31    27   ar
    41    38    33   ar
    42     8     2    1
    43    12     9    1
